################################################################################
#
# Ring-Plug Assembly Viscoplastic Residual Stress Calculation, MTS version
# 
# This problem uses a coarse quarter symmetry mesh. The problem starts with both
# materials below their stress reference temperature. The initial stress is
# calculated and a small amount of plastic relaxation occurs. If the total time
# is increased, the assembly will continue to cool and the elastic stress and
# plastic strain will continue to evolve. This version for the test suite runs
# for a short time, exercising the initial elastic stress calculation,
# viscoplastic flow and heat conduction. This version uses the MTS model for the
# viscoplastic model
#
# - Mesh file coordinates are in meters
# - This mesh contains two materials:
#     1. Graphite plug with elastic properties (no temperature dependence)
#     2. 5754 Aluminum ring with elastic-viscoplastic properties
# - All units are SI, with temperatures in degrees K
#
# David Korzekwa, MST6
#
################################################################################


&MESH
  mesh_file = 'hytec_quarter_coarse.gen'
  interface_side_sets = 1
/

&OUTPUTS
  output_t = 0.0, 0.5 !5.0
  output_dt = 1.0
/

&NUMERICS
  dt_constant = 1e-1
  ! dt_max = 1.0
  ! dt_grow = 5.0
  ! dt_init = 1e-1
  ! dt_min = 1e-8
/

&PHYSICS
  materials = 'graphite', '5754 aluminum'
  heat_transport = .true.
  solid_mechanics = .true.
/

&DIFFUSION_SOLVER
  abs_temp_tol = 0
  rel_temp_tol = 1e-4
  abs_enthalpy_tol = 0
  rel_enthalpy_tol = 1e-4
  nlk_tol = 0.05
  verbose_stepping = .true.
/

&SOLID_MECHANICS
  maximum_iterations = 500
  abs_stress_tol = 1e-13
  abs_displ_tol = 1e100
  rel_displ_tol = 1e100
  nlk_max_vectors = 60

  ! Make the contact parameters large to model a sliding interface (no
  ! penetration or separation).
  contact_distance = 1e100
  contact_norm_trac = 1e100
/


### BODIES #####################################################################

# Plug geometry and initial conditions
&BODY
  material_name = 'graphite'
  mesh_material_number = 1
  surface_name = 'from mesh file'
  temperature = 5.50e+02
/

# Ring geometry and initial conditions
&BODY
  material_name = '5754 aluminum'
  mesh_material_number = 2
  surface_name = 'from mesh file'
  temperature = 5.50e+02
/

### BOUNDARY CONDITIONS #######################################################

# x=0, y=0, and z=0 symmetry planes
# --> insulated with zero normal displacement
&THERMAL_BC
  name = 'symmetry'
  type = 'flux'
  face_set_ids = 2, 3, 6
  flux = 0.0
/

&SOLID_MECHANICS_BC
  name = 'symmetry'
  face_set_ids = 2, 3, 6
  type = 'displacement-n'
  displacement = 0.0
/

# z = 0.0127 heat transfer and all traction components zero (default)
&THERMAL_BC
  name = 'top surface'
  type = 'htc'
  face_set_ids  = 5
  htc = 1.0e2
  ambient_temp = 2.98e+02
/

# Outer radius = 0.0508 heat transfer and all tractions zero
&THERMAL_BC
  name = 'outer radius'
  type = 'htc'
  face_set_ids = 4
  htc = 1.0e2
  ambient_temp = 2.98e+02
/

# Interface between plug and ring
&THERMAL_BC
  name = 'plug/ring interface'
  type = 'interface-htc'
  htc = 1.0e3
  face_set_ids = 1
/

&SOLID_MECHANICS_BC
  name = 'plug/ring interface'
  face_set_ids = 1
  type = 'gap-contact'
/

x&BC
  surface_name = 'from mesh file'
  mesh_surface = 1
  bc_variable = 'displacement'
  bc_type = 'normal-constraint'
  bc_value = 0.0
/

### MATERIALS ##################################################################

### GRAPHITE ###

&MATERIAL
  name = 'graphite'
  density = 1.7e3
  specific_heat = 1.925e3
  conductivity = 1.95e2
  tm_ref_density = 1.7e3
  tm_ref_temp = 800.0
  tm_linear_cte = 7.0e-6
  tm_lame1 = 3.4e+9
  tm_lame2 = 2.76e+9
/

### 5754 ALUMINUM ###

&MATERIAL
  name = '5754 aluminum'
  density = 2.7e3
  specific_heat = 8.5e2
  conductivity = 2.4e2
  tm_ref_density = 1.7e3
  tm_ref_temp = 800.0
  tm_linear_cte = 2.2e-5
  tm_lame1 = 5.20e+10
  tm_lame2 = 2.60e+10
/

&VISCOPLASTIC_MODEL
  phase = '5754 aluminum'
  model = 'MTS'
  MTS_k = 1.38e-23
  MTS_mu_0 = 28.815e9
  MTS_sig_a = 10.0e6
  MTS_d = 3.440e9
  MTS_temp_0 = 215.0
  MTS_b = 2.86e-10
  MTS_edot_0i = 1.0e7
  MTS_g_0i = 3.6
  MTS_q_i = 1.5
  MTS_p_i = 0.5
  MTS_sig_i = 107.2e6
/
