TODO -- PROBLEM TITLE

TODO -- Problem description.

&MESH
  x_axis%coarse_grid = 0.0, 1.0
  y_axis%coarse_grid = 0.0, 1.0
  z_axis%coarse_grid = 0.0, 1.0
  x_axis%intervals   = 5
  y_axis%intervals   = 5
  z_axis%intervals   = 5
/

&OUTPUTS
  output_t = 0.0, 1.0
  output_dt = 1.0
/

&NUMERICS
  dt_init = 1.0e0
  dt_max  = 1.0e0
  dt_grow = 100
/

&PHYSICS
  materials = 'stuff'
  legacy_solid_mechanics = .true.
  heat_transfer = .false.
/

&LEGACY_SOLID_MECHANICS /
#&DIFFUSION_SOLVER /

&BODY
  surface_name = 'from mesh file'
  material_name = 'stuff'
  mesh_material_number = 1
  temperature = 1.0
/

&BC
  surface_name = 'from mesh file'
  mesh_surface = 1
  bc_variable  = 'displacement'
  bc_type      = 'x-displacement'
  bc_value     = 0.0
/

&BC
  surface_name = 'from mesh file'
  mesh_surface = 2
  bc_variable  = 'displacement'
  bc_type      = 'x-displacement'
  bc_value     = 0.0
/

&BC
  surface_name     = 'from mesh file'
  mesh_surface          = 3
  bc_variable      = 'displacement'
  bc_type          = 'y-displacement'
  bc_value         = 0.0e+00
/

&BC
  surface_name = 'from mesh file'
  mesh_surface = 4
  bc_variable  = 'displacement'
  bc_type      = 'y-displacement'
  bc_value     = 0.0e+00
/

&BC
  surface_name = 'from mesh file'
  mesh_surface = 5
  bc_variable  = 'displacement'
  bc_type      = 'z-displacement'
  bc_value     = 0.0e+00
/

# &THERMAL_BC
#   name = 'x=0'
#   type = 'flux'
#   face_set_ids = 1
#   flux = 0.0
# /

# &THERMAL_BC
#   name = 'x=2.0e-2'
#   type = 'flux'
#   face_set_ids = 2
#   flux = 0.0
# /

# &THERMAL_BC
#   name = 'y=0'
#   type = 'flux'
#   face_set_ids = 3
#   flux = 0.0
# /

# &THERMAL_BC
#   name = 'y=3.0e-2'
#   type = 'flux'
#   face_set_ids = 4
#   flux = 0.0
# /

# &THERMAL_BC
#   name = 'z=0'
#   type = 'temperature'
#   face_set_ids = 5
#   temp = 300.0
# /

# &THERMAL_BC
#   name = 'z=4'
#   type = 'flux'
#   face_set_ids = 6
#   flux = 0.0
# /

&MATERIAL
  name = 'stuff'
  phases = 'stuff'
  density = 1.0
  tm_lame1 = 1e10
  tm_lame2 = 2e10
  ref_temp = 0.0
  ref_enthalpy = 0.0
/

&PHASE
  name = 'stuff'
  specific_heat = 1.0
  conductivity = 1.0
  tm_ref_density = 1.0
  tm_ref_temp = 1.0
  tm_linear_cte = 1e-5
/
