TWO-PHASE (NO LATENT HEAT) ENTHALPY TEST 3
------------------------------------------
The sole purpose of this test is to verify for a two-phase material that
different equivalent methods of specifying the internal derived enthalpy
density are indeed equivalent. This uses a latent heat of 0, so that the
problem is formally equivalent to the single-phase test inputs and should
produce the same thermal results. This input file specifies the specific
enthalpy function for the low temperature phase, and sets the specific heat
for the other phase.

&OUTPUTS
  output_t = 0.0, 0.5
  output_dt = 0.5
/

&PROBE
  data_file = 'probe1.dat'
  coord = 0.5, 0.0, 0.0
  data = 'enthalpy'
  digits = 10
/

&MATERIAL
  name = 'stuff'
  phases = 'solid', 'liquid'
  density = 4.0
  specific_enthalpy_func = 'h-stuff'
  conductivity = 1.0
/

h(T) = 1 + (T - 2)/2
&FUNCTION
  name = 'h-stuff'
  type = 'polynomial'
  poly_coefficients = 1.0, 0.5
  poly_exponents(1,:) = 0, 1
  poly_refvars = 2.0
/

&PHASE_CHANGE
  low_temp_phase = 'solid'
  high_temp_phase = 'liquid'
  solidus_temp = 9.0
  liquidus_temp = 10.0
  latent_heat = 0
/

&BODY
  surface_name = 'from mesh file'
  mesh_material_number = 1
  material_name = 'liquid'
  temperature = 12.0
/

&MESH
 x_axis%coarse_grid = 0.0, 1.0
 x_axis%intervals = 21
 y_axis%coarse_grid = -0.05, 0.05
 y_axis%intervals = 1
 z_axis%coarse_grid = -0.05, 0.05
 z_axis%intervals = 1
/

&PHYSICS
  materials = 'stuff'
  heat_transport = .true.
/

&DIFFUSION_SOLVER
  abs_temp_tol       = 0.0
  rel_temp_tol       = 1.0e-4
  abs_enthalpy_tol   = 0.0
  rel_enthalpy_tol   = 1.0e-4
  nlk_tol            = 1.0e-3
  nlk_preconditioner = 'hypre_amg'
  verbose_stepping   = .true.
  hypre_amg_relax_down_type = 18
  hypre_amg_relax_up_type = 18
/

&NUMERICS
  dt_init = 1.0d-5
  dt_min  = 1.0d-7
  dt_grow = 10.0
  dt_max  = 100.0
/

&THERMAL_BC
  name = 'right dirichlet'
  type = 'temperature'
  face_set_ids = 2
  temp = 5.0
/

&THERMAL_BC
  name = 'adiabatic'
  type = 'flux'
  face_set_ids = 1, 3, 4, 5, 6
  flux = 0.0
/
