TWO-PHASE ENTHALPY TEST 5
-------------------------
The sole purpose of this test is to verify for a two-phase material that
different equivalent methods of specifying the internal derived enthalpy
density are indeed equivalent. This input file specifies the specific
enthalpy function for the material as a whole, and implicitly includes
the latent heat, which is not set. The function is a tabular function
whose definition is formally equivalent to the specific enthalpy that
is internally generated for Test 1. Due to unavoidable roundoff errors
with the different (but equivalent) expressions, the thermal results
from the two tests will not match bit-for-bit as in the other tests, but
will still be very small.  

&OUTPUTS
  output_t = 0.0, 0.5
  output_dt = 0.5
/

&PROBE
  data_file = 'probe1.dat'
  coord = 0.5, 0.0, 0.0
  data = 'enthalpy'
  digits = 10
/

&MATERIAL
  name = 'stuff'
  phases = 'solid', 'liquid'
  density = 4.0
  specific_enthalpy_func = 'h-stuff'
  conductivity = 1.0
/

&FUNCTION
  name = 'h-stuff'
  type = 'tabular'
  tabular_data = 0.0, 0.0
                 8.0, 4.0
                 9.0, 4.5
                10.0, 7.0
                11.0, 7.5
                14.0, 9.0
  tabular_interp = 'akima'
  tabular_extrap = 'linear'
/

&PHASE_CHANGE
  low_temp_phase = 'solid'
  high_temp_phase = 'liquid'
  solidus_temp = 9.0
  liquidus_temp = 10.0
  !latent_heat = 2 NOT NEEDED NOR USED
/

&BODY
  surface_name = 'from mesh file'
  mesh_material_number = 1
  material_name = 'liquid'
  temperature = 12.0
/

&MESH
 x_axis%coarse_grid = 0.0, 1.0
 x_axis%intervals = 21
 y_axis%coarse_grid = -0.05, 0.05
 y_axis%intervals = 1
 z_axis%coarse_grid = -0.05, 0.05
 z_axis%intervals = 1
/

&PHYSICS
  materials = 'stuff'
  heat_transport = .true.
/

&DIFFUSION_SOLVER
  abs_temp_tol       = 0.0
  rel_temp_tol       = 1.0e-3
  abs_enthalpy_tol   = 0.0
  rel_enthalpy_tol   = 1.0e-3
  nlk_tol            = 0.02
  nlk_preconditioner = 'hypre_amg'
  verbose_stepping   = .true.
  pc_amg_cycles = 5
/

&NUMERICS
  dt_init = 1.0d-5
  dt_min  = 1.0d-7
  dt_grow = 10.0
  dt_max  = 100.0
/

&THERMAL_BC
  name = 'right dirichlet'
  type = 'temperature'
  face_set_ids = 2
  temp = 5.0
/

&THERMAL_BC
  name = 'adiabatic'
  type = 'flux'
  face_set_ids = 1, 3, 4, 5, 6
  flux = 0.0
/
