&OUTPUTS
  output_t = 0.0, 100.0, 150.0
  output_dt = 5.0, 50.0
  output_dt_multiplier = 1
  !short_output_dt_multiplier = 1
  !long_output_dt_multiplier = 5
  !Long_Edit_Bounding_Coords = 0.0, 8.0e-2, 0.00, 8.0e-2, 0.00, 8.0e-2
/

&MESH
  mesh_file = 'split-rotated-cube.exo'
  coordinate_scale_factor = 0.01
  gap_element_blocks = 3
/

&PHYSICS
  heat_transport = .true.
  solid_mechanics = .true.
/

&DIFFUSION_SOLVER
  abs_temp_tol = 0.0
  rel_temp_tol = 1.0e-4
  abs_enthalpy_tol = 0.0
  rel_enthalpy_tol = 1.0e-4
  nlk_tol = 0.01
  nlk_preconditioner = 'hypre_amg'
  verbose_stepping = .true.
/

&NUMERICS
  dt_init = 1.0
  dt_grow = 5.0
  dt_max = 5.0
  dt_min = 1.0e-3
  displacement_nonlinear_solution = 'displacement solve'
  contact_distance = 1.0e-7
  contact_norm_trac = 1.0e4
  contact_penalty = 1.0e3
/

&LINEAR_SOLVER
  name = 'displacement precon'
  method = 'none'
  preconditioning_steps = 4
  relaxation_parameter = 1.0
  preconditioning_method = 'tm_ssor'
/

&NONLINEAR_SOLVER 
  name = 'displacement solve'
  method = 'nlk'
  linear_solver_name = 'displacement precon'
  convergence_criterion = 1.0e-12
  NLK_max_vectors = 20
  NLK_vector_tolerance = 0.001
  maximum_iterations = 2000
/

&BODY
  surface_name = 'from mesh file'
  mesh_material_number = 1
  material_number = 1
  temperature = 288.0
/

&BODY
  surface_name = 'from mesh file'
  mesh_material_number = 2
  material_number = 1
  temperature = 288.0
/

&BODY
  surface_name = 'from mesh file'
  mesh_material_number = 3
  material_number = 2
  temperature = 288.0
/

&DS_BOUNDARY_CONDITION
  name = 'ends'
  variable = 'temperature'
  condition = 'dirichlet'
  face_set_ids = 1, 2
  data_function = 'applied temperature profile'
/

&FUNCTION
  name = 'applied temperature profile'
  type = 'smooth step'
  smooth_step_x0 = 0.0
  smooth_step_y0 = 288.0
  smooth_step_x1 = 100.0
  smooth_step_y1 = 308.0
/

&DS_BOUNDARY_CONDITION
  name = 'lateral sides'
  variable = 'temperature'
  condition = 'flux'
  face_set_ids = 3, 4, 5, 6
  data_constant = 0.0
/

&DS_INTERFACE_CONDITION
  name = 'gap interface'
  variable = 'temperature'
  condition = 'HTC'
  face_set_ids = 3
  data_constant = 1.0e4
/

&BC
  bc_name = 'left end -- no normal displacement'
  surface_name = 'from mesh file'
  mesh_surface = 1
  bc_variable = 'displacement'
  bc_type = 'normal-displacement' 
  bc_value = 0.0
/

&BC
  bc_name = 'gap interface'
  surface_name = 'from mesh file'
  mesh_surface = 10
  bc_variable = 'displacement'
  bc_type = 'contact'
  bc_value = 0.0
/

&BC
  bc_name = 'right end -- no normal displacement'
  surface_name = 'from mesh file'
  mesh_surface = 2
  bc_variable = 'displacement'
  bc_type = 'normal-displacement'
  bc_value = 0.0
/

&BC
  bc_name = 'front side'
  surface_name = 'from mesh file'
  mesh_surface = 3
  bc_variable = 'displacement'
  bc_type = 'normal-displacement'
  bc_value = 0.0
/

&BC
  bc_name = 'bottom side'
  surface_name = 'from mesh file'
  mesh_surface = 5
  bc_variable = 'displacement'
  bc_type = 'normal-displacement'
  bc_value = 0.0
/

&BC
  bc_name = 'top side'
  surface_name = 'from mesh file'
  mesh_surface = 6
  bc_variable = 'displacement'
  bc_type = 'normal-displacement'
  bc_value = 0.0
/

define the material properties (aluminum, SI units)
Elastic constants (stresses) in MPa to make test checking easier 
&MATERIAL
  material_number =  1
  priority =  1
  material_name = 'aluminum'
  material_feature = 'background'
  density =  2.70e+03
  immobile = .true.
/
  Lame1_Constants =  5.20e+10
  Lame2_Constants =  2.60e+10

&PHASE
  name = 'aluminum'
  property_name(1) = 'density',       property_constant(1) = 2.7e3
  property_name(2) = 'specific heat', property_constant(2) = 9.0e2
  property_name(3) = 'conductivity',  property_constant(3) = 2.4e2
  property_name(4) = 'TM reference density',     property_constant(4) = 2.7e3
  property_name(5) = 'TM reference temperature', property_constant(5) = 298.0
  property_name(6) = 'TM linear CTE',            property_constant(6) = 2.2e-5
  property_name(7) = 'Lame1', property_constant(7) = 5.20e+10
  property_name(8) = 'Lame2', property_constant(8) = 2.60e+10
/

&MATERIAL_SYSTEM
  name = 'aluminum'
  phases = 'aluminum'
/

&MATERIAL
  material_number = 2
  priority = 2
  material_name = 'gap'
  density =  0.0
  immobile = .true.
/
  Lame1_Constants = 0.0
  Lame2_Constants = 0.0
