DIFFUSION SOLVER TEST 1

Nonlinear diffusion of species C.  2D problem, 1 cell thick.
Imposed flux at left end of rectangular domain, Dirichlet condition at
the other end, and no flux on the remaining boundaries.  Low-diffusivity
inclusion in the middle of the domain created using a 'cylindrical' body,
giving rise to mixed material cells.

See diffusion solver tests 2, 3 and 4 for variations.

&MESH
  mesh_file = 'ds1-randomized.gen'
/

&OUTPUTS
  Output_T = 0.0, 0.1
  Output_Dt = 0.1
/

&PHYSICS
  species_transport = .true.
  number_of_species = 1
/

&DIFFUSION_SOLVER
  stepping_method    = 'Adaptive BDF2'
  abs_conc_tol       = 1.0e-4
  rel_conc_tol       = 1.0e-2
  nlk_tol            = 5.0e-3
  nlk_preconditioner = 'ssor'
  pc_ssor_relax      = 1.4
/

&NUMERICS
  dt_init = 1.0d-7
  dt_min  = 1.0d-9
  dt_grow = 10.0
/

&DS_BOUNDARY_CONDITION
  name = 'left end'
  variable = 'concentration1'
  condition = 'flux'
  Face_Set_IDs = 1
  data_constant = -10.0
/

&DS_BOUNDARY_CONDITION
  name = 'right end'
  variable = 'concentration1'
  condition = 'dirichlet'
  Face_Set_IDs = 2
  data_constant = 0.0
/

&DS_BOUNDARY_CONDITION
  name = 'other sides'
  variable = 'concentration1'
  condition = 'flux'
  Face_Set_IDs = 3
  data_constant = 0.0
/

&BODY
  surface_name = 'cylinder'
  axis = 'z'
  fill = 'inside'
  translation_pt = 0.0, 0.0, -.5
  radius = 0.18
  height = 1.0
  material_number = 1
  temperature = 0.0
  phi = 0.0
/

&BODY
  surface_name = 'background'
  material_number = 2
  temperature = 0.0
  phi = 0.0
/

INTERFACES
  Vof_Method = 'divide'
/

&MATERIAL
  Material_Number = 1,
  Material_Name   = 'A+C'
  Density         = 2.0
/

&PHASE
  name = 'A+C'
  property_name(1) = 'density',      property_constant(1) = 2.0
  property_name(4) = 'diffusivity1', property_constant(4) = 0.05
/

&MATERIAL_SYSTEM
  name = 'A+C'
  phases = 'A+C'
  number_of_components = 2
  temperature_dependent = .false.
/

&MATERIAL
  Material_Number  = 2,
  Material_Name    = 'B+C'
  Material_Feature = 'background'
  Density          = 2.0
/

&PHASE
  name = 'B+C'
  property_name(1) = 'density',      property_constant(1) = 2.0
  property_name(4) = 'diffusivity1', property_function(4) = 'diff-C-in-B'
/

&FUNCTION
  name = 'diff-C-in-B'
  type = 'polynomial'
  poly_coefficients   = 0.1, 1.0
  poly_exponents(1,:) = 0,   1
/

&MATERIAL_SYSTEM
  name = 'B+C'
  phases = 'B+C'
  number_of_components = 2
  temperature_dependent = .false.
/

!! Define a void material purely for testing purposes.
!! No void exists in the problem but this alters the code flow
!! slightly.  Results should be identical with/without this.

!&MATERIAL
!  Material_Number  = 3
!  Material_Name    = 'void'
!  Density          = 0.0
!/
