COUETTE-LIKE TANGENTIAL SURFACE TENSION
---------------------------------------
This problem is similar to Couette flow, except instead of
a dirichlet velocity boundary condition at the z+ boundary,
constant tangential surface tension is applied via a
constant temperature field. In this case, the temperature
field is set using the heat solver, boundary conditions,
high conduction, and the fact that all fluid flow will
be along temperature contours. This runs to steady state,
where the exact solution is:

u = dsig/dx / mu * (y - ymin)

&MESH
  mesh_file = 'tangential-surface-tension.gen'
/

&OUTPUTS
  Output_T = 0.0, 20.0
  Output_Dt = 20.0
/

&PHYSICS
  materials = 'liquid'
  heat_transport = .true.
  flow = .true.
/

&DIFFUSION_SOLVER
  abs_temp_tol       = 0.0
  rel_temp_tol       = 1.0e-3
  abs_enthalpy_tol   = 0.0
  rel_enthalpy_tol   = 1.0e-3
  nlk_tol            = 0.01
  nlk_preconditioner = 'hypre_amg'
  pc_amg_cycles      = 4
  verbose_stepping   = .true.
/

&FLOW
  inviscid = f
  courant_number = 0.5
  viscous_number = 100.0
  viscous_implicitness = 0.5
/

&FLOW_VISCOUS_SOLVER
  rel_tol = 1.0e-10
  abs_tol = 1.0e-10
  max_ds_iter = 50
  max_amg_iter = 10
  krylov_method = 'cg'
/

&FLOW_PRESSURE_SOLVER
  rel_tol = 1.0e-10
  abs_tol = 1.0e-10
  max_ds_iter = 100
  max_amg_iter = 10
  krylov_method = 'cg'
/

&NUMERICS
  dt_init = 1.0d-10
  dt_min  = 1.0d-11
  dt_grow = 1.5
  dt_max  = 1.0
  discrete_ops_type = 'ortho'
/

##### BOUNDARY CONDITIONS ######################################################

&THERMAL_BC
  name = 'cold'
  face_set_ids = 1
  type = 'temperature'
  temp = 1.0
/

&THERMAL_BC
  name = 'hot'
  face_set_ids = 2
  type = 'temperature'
  temp = 13.0
/

&THERMAL_BC
  name = 'walls'
  face_set_ids = 3, 4, 5, 6
  type = 'flux'
  flux = 0.0
/

&FLOW_BC
  name = 'inlet'
  type = 'pressure'
  face_set_ids = 1, 2
  pressure = 0.0
/

&FLOW_BC
  name = 'symmetry'
  type = 'free-slip'
  face_set_ids = 5, 6
/

&FLOW_BC
  name = 'surface tension'
  type = 'marangoni'
  face_set_ids = 3
  dsigma = -1.0
/

&FLOW_BC
  name = 'wall'
  type = 'no-slip'
  face_set_ids = 4
/

&BODY
  surface_name = 'from mesh file'
  mesh_material_number = 1
  material_name = 'liquid'
  temperature = 1
/

##### MATERIALS ################################################################

&MATERIAL
 name = 'liquid'
 is_fluid = T
 density = 1.0
 specific_heat = 1.0
 conductivity = 1.0e9
 viscosity = 20.0
/
