DIFFUSION SOLVER TEST 5

3-component, coupled nonlinear diffusion.  Spherically symmetric problem
solved in a 1-cell thick annular wedge.  Dirichlet conditions at the inner
surface, flux conditions at the outer surface, and no flux on the remaining
boundaries.

The first component is decoupled from the others and serves as the reference
field.  The analytic steady-state solution is u1(r) = sqrt[(4/9)*r^-1 - (1/3)]
for r in [1/3,1], with a diffusivity D1 = 2*u1.

The remaining two fields, u2 and u3, share a common coupled diffusivity
D2 = D3 = 4*u2 - 2*u3.  The initial conditions and boundary values conspire
so that for all time we have u1 = 2*u2 - u3, and moreover that u3 = 2*u1
and u2 = (3/2)*u1.

The Dirichlet values for u1, u2 and u3 are 1.0, 1.5 and 2.0 respectively.
The flux values for u1, u2 and u3 are 4/9, 2/3 and 8/9 respectively.

&MESH
  mesh_file = 'ds5.gen'
/

&OUTPUTS
  Output_T = 0.0, 0.5, 5.0
  Output_Dt = 0.5, 5.0
/

A kludge to force hitting the final time exactly
&SIMULATION_CONTROL
  phase_start_times = 5.0
  phase_init_dt_factor = 1.0
/

&PHYSICS
  species_transport = .true.
  number_of_species = 3
  fluid_flow = .false.
/

&DIFFUSION_SOLVER
  abs_conc_tol       = 0.0
  rel_conc_tol       = 1.0e-2
  nlk_tol            = 0.1
  nlk_preconditioner = 'hypre_amg'
/

&NUMERICS
  dt_init = 1.0d-4
  dt_min  = 1.0d-6
  dt_grow = 10.0
/

&DS_BOUNDARY_CONDITION
  name = 'C1-inner'
  variable = 'concentration1'
  condition = 'dirichlet'
  data_constant = 1.0
  Face_Set_IDs = 1
/

&DS_BOUNDARY_CONDITION
  name = 'C1-outer'
  variable = 'concentration1'
  condition = 'flux'
  data_constant = 0.4444444444444444
  Face_Set_IDs = 2
/

&DS_BOUNDARY_CONDITION
  name = 'C1-symmetry sides'
  variable = 'concentration1'
  condition = 'flux'
  data_constant = 0.0
  Face_Set_IDs = 3
/

&DS_BOUNDARY_CONDITION
  name = 'C2-inner'
  variable = 'concentration2'
  condition = 'dirichlet'
  data_constant = 1.5
  Face_Set_IDs = 1
/

&DS_BOUNDARY_CONDITION
  name = 'C2-outer'
  variable = 'concentration2'
  condition = 'flux'
  data_constant = 0.6666666666666666
  Face_Set_IDs = 2
/

&DS_BOUNDARY_CONDITION
  name = 'C2-symmetry sides'
  variable = 'concentration2'
  condition = 'flux'
  data_constant = 0.0
  Face_Set_IDs = 3
/

&DS_BOUNDARY_CONDITION
  name = 'C3-inner'
  variable = 'concentration3'
  condition = 'dirichlet'
  data_constant = 2.0
  Face_Set_IDs = 1
/

&DS_BOUNDARY_CONDITION
  name = 'C3-outer'
  variable = 'concentration3'
  condition = 'flux'
  data_constant = 0.8888888888888888
  Face_Set_IDs = 2
/

&DS_BOUNDARY_CONDITION
  name = 'C3-symmetry sides'
  variable = 'concentration3'
  condition = 'flux'
  data_constant = 0.0
  Face_Set_IDs = 3
/

&BODY
  surface_name = 'from mesh file'
  mesh_material_number = 1
  material_number = 1
  temperature = 0.0
  phi = 1.0, 1.5, 2.0
/

&MATERIAL
  Material_Number  = 1
  Material_Name    = 'A+XYZ'
  Material_Feature = 'background'
  Density          = 1.0
/

&PHASE
  name = 'A+XYZ'
  property_name(1) = 'density',      property_constant(1) = 1.0
  property_name(4) = 'diffusivity1', property_function(4) = 'diff-X-in-A'
  property_name(5) = 'diffusivity2', property_function(5) = 'diff-Y-in-A'
  property_name(6) = 'diffusivity3', property_function(6) = 'diff-Z-in-A'
/

&FUNCTION
  name = 'diff-X-in-A'
  type = 'polynomial'
  poly_coefficients   = 2.0
  poly_exponents(1,:) = 1
  poly_exponents(2,:) = 0
  poly_exponents(3,:) = 0
/

&FUNCTION
  name = 'diff-Y-in-A'
  type = 'polynomial'
  poly_coefficients   = 4.0, -2.0
  poly_exponents(1,:) = 0, 0
  poly_exponents(2,:) = 1, 0
  poly_exponents(3,:) = 0, 1
/

&FUNCTION
  name = 'diff-Z-in-A'
  type = 'polynomial'
  poly_coefficients   = 4.0, -2.0
  poly_exponents(1,:) = 0, 0
  poly_exponents(2,:) = 1, 0
  poly_exponents(3,:) = 0, 1
/

&MATERIAL_SYSTEM
  name = 'A+XYZ'
  phases = 'A+XYZ'
  number_of_components = 4
  temperature_dependent = .false.
/
