DIFFUSION SOLVER TEST 4

Phase change.  2D problem, 1 cell thick.  Rectangular 'mold' domain with
'metal' inclusion in the middle of the domain created using a cylindrical
body, giving rise to mixed material cells.  Imposed flux at left end of
domain, Dirichlet condition at the other end, and no flux on the remaining
boundaries, melts the initially solid metal.

This is a variation of Diffusion Solver Test 2.

Input file is written to allow running the same problem using the existing
HT/PC solver.  Just enable heat_conduction and phase_change, and disable
diffusion_solver in the PHYSICS namelist.  Note that the mesh is non-orthogonal
(a jittered orthogonal mesh) and that LSLR discrete operator seems to have
problems with it and/or the boundary conditions so ortho operators are used
for HT/PC.

&MESH
  mesh_file = 'ds1-randomized.gen'
  mesh_file_format = 'ExodusII'
/

&OUTPUTS
  Output_T = 0.0, 1.0
  Output_Dt = 1.0
/

&PHYSICS
  heat_transport = .true.
  fluid_flow = .false.
/

&DIFFUSION_SOLVER
  abs_temp_tol       = 0.0
  rel_temp_tol       = 1.0e-3
  abs_enthalpy_tol   = 0.0
  rel_enthalpy_tol   = 1.0e-3
  nlk_preconditioner = 'hypre_amg'
  pc_amg_cycles      = 2
  nlk_tol = 0.02
/
  nlk_vec_tol        = 1.0e-3

&NUMERICS
  dt_init = 1.0d-4
  dt_min  = 1.0d-9
  dt_grow = 10.0
/

&DS_BOUNDARY_CONDITION
  name = 'left end'
  variable = 'temperature'
  condition = 'flux'
  data_constant = -10.0
  Face_Set_IDs = 1
/

&DS_BOUNDARY_CONDITION
  name = 'right end'
  variable = 'temperature'
  condition = 'flux'
  data_constant = 0.0
  Face_Set_IDs = 2
/

&DS_BOUNDARY_CONDITION
  name = 'symmetry planes'
  variable = 'temperature'
  condition = 'flux'
  data_constant = 0.0
  Face_Set_IDs = 3
/

&BODY
  surface_name = 'cylinder'
  axis = 'z'
  fill = 'inside'
  translation_pt = 0.0, 0.0, -.5
  radius = 0.18
  height = 1.0
  material_number = 2
  temperature = 495.0
/

&BODY
  surface_name = 'background'
  material_number = 1
  temperature = 495.0
/

INTERFACES
  Vof_Method = 'divide'
/

&MATERIAL
  Material_Number         = 1
  Material_Name           = 'mold'
  Material_Feature        = 'background'
  Density                 = 1.25
/

&PHASE
  name = 'mold'
  property_name(1) = 'density',       property_constant(1) = 1.25 ! g/cm^3
  property_name(2) = 'specific heat', property_constant(2) = 0.8  ! J/g-K
  property_name(3) = 'conductivity',  property_function(3) = 'mold-cond'  ! W/cm-K
/

&FUNCTION
  name = 'mold-cond'
  type = 'polynomial'
  poly_coefficients   = 0.1, 0.5
  poly_exponents(1,:) = 0,   1
  poly_refvars = 495.0
/

&MATERIAL_SYSTEM
  name = 'mold'
  phases = 'mold'
  reference_temp = 495.0
  reference_enthalpy = 1.0
/

&MATERIAL
  Material_Number         = 2
  Material_Name           = 'solid'
  Density                 = 4.0
/

&PHASE
  name = 'solid'
  property_name(1) = 'density',       property_constant(1) = 4.0  ! g/cm^3
  property_name(2) = 'specific heat', property_constant(2) = 0.25 ! J/g-K
  property_name(3) = 'conductivity',  property_constant(3) = 0.1  ! W/cm-K
/

&MATERIAL
  Material_Number         = 3
  Material_Name           = 'liquid'
  Density                 = 4.0
/

&PHASE
  name = 'liquid'
  property_name(1) = 'density',       property_constant(1) = 4.0  ! g/cm^3
  property_name(2) = 'specific heat', property_constant(2) = 0.25 ! J/g-K
  property_name(3) = 'conductivity',  property_constant(3) = 0.1  ! W/cm-K
/

&MATERIAL_SYSTEM
  name = 'metal'
  phases = 'solid', 'liquid'
  transition_temps_low  = 499.0
  transition_temps_high = 500
  latent_heat           = 10.0 ! J/g
  reference_temp        = 495.0
  reference_enthalpy    = 1.0
/

!! Define a void material purely for testing purposes.
!! No void exists in the problem but this alters the code flow
!! slightly.  Results should be identical with/without this.

&MATERIAL
  Material_Number  = 4
  Material_Name    = 'void'
  Density          = 0.0
/
