 Generated by InputConvert.pl from hc_bapc.inp on Wed Nov 26 14:49:34 MST 2003
-----------------
Phase change in an Eutectic Alloy 

&MESH 

    Ncell  = 12, 4, 4
    Coord  = 0, 0, 0, 1.5, 1.0, 1.0

/

&PHYSICS 

    fluid_flow       = .false.
    heat_conduction  = .true.
    phase_change     = .true.

/

&MATERIAL 

    Material_Name           = 'liquid'
    Material_Number         = 1
    Conductivity_Constants  = 15, .0002
    Conductivity_exponents  = 0, 2
    conductivity_relation   = 'temperature_polynomial'
    Density                 = 5000
    Cp_Constants            = 1000, .001
    Cp_exponents            = 0, 2
    Cp_relation             = 'temperature_polynomial'
    reference_temperature   = 800
    Priority                = 1

/
    


&MATERIAL 

    Material_Name           = 'solid'
    Material_Number         = 2
    Conductivity_Constants  = 15
    Density                 = 5000
    Cp_Constants            = 1000
    Priority                = 2

/



&MATERIAL 

    Material_Name           = 'mold1'
    Material_Number         = 3
    Conductivity_Constants  = 20
    Density                 = 10000
    Cp_Constants            = 2000
    Priority                = 3

/

&MATERIAL 

    Material_Name           = 'mold2'
    Material_Number         = 4
    Material_Feature        = 'background'
    Conductivity_Constants  = 25
    Density                 = 5000
    Cp_Constants            = 1000
    Priority                = 4

/

&BODY 

    Surface_Name     = 'box'
    Length           = 0.5, 1, 1
    Fill             = 'inside'
    Translation_Pt   = 0.25, 0.5, 0.5
    Material_Number  = 1
    Concentration    = .10
    Temperature      = 1000

/

&BODY 

    Surface_Name     = 'box'
    Length           = 0.5, 1, 1
    Fill             = 'inside'
    Translation_Pt   = 0.75, 0.5, 0.5
    Material_Number  = 3
    Temperature      = 1000

/

&BODY 

    Surface_Name     = 'background'
    Fill             = 'nodefault'
    Material_Number  = 4
    Temperature      = 1000

/

&BC 

    bc_name          = 'left'
    Surface_Name     = 'conic'
    Conic_X          = 1
    Conic_Constant   = 0
    Conic_Tolerance  = 1e-06
    Conic_Relation   = '='
    BC_Type          = 'dirichlet'
    BC_Variable      = 'temperature'
    BC_Value         = 100., 10., 80.


/

&BC 

    bc_name          = 'center'
    Surface_Name     = 'conic'
    Conic_X          = 1
    Conic_Constant   = -.5
    Conic_Tolerance  = 1e-06
    Conic_Relation   = '='
    BC_Type          = 'htc'
    BC_Variable      = 'temperature'
    BC_Value         = 100.
/

&BC 

    bc_name          = 'right'
    Surface_Name     = 'conic'
    Conic_X          = 1
    Conic_Constant   = -1.5
    Conic_Tolerance  = 1e-06
    Conic_Relation   = '='
    BC_Variable      = 'temperature',
    BC_Type          = 'radiation',
    BC_Value         = 500.0, 900.0, 10000, 475
/

&BC 

    BC_Use_function  = .true.
    bc_name          = 'top'
    Surface_Name     = 'conic'
    Conic_Y          = 1
    Conic_Constant   = 0
    Conic_Tolerance  = 1e-06
    Conic_Relation   = '='
    BC_Type          = 'dirichlet'
    BC_Variable      = 'temperature'
    BC_Value         = 1000., 10., 800.


/

&BC 

    bc_name          = 'bottom'
    Surface_Name     = 'conic'
    Conic_Y          = 1
    Conic_Constant   = -1
    Conic_Tolerance  = 1e-06
    Conic_Relation   = '='
    BC_Type          = 'neumann'
    BC_Use_function  = .true.
    BC_Variable      = 'temperature'
    BC_Value         = 0., 10., 0.


/

&BC 
    bc_name          = 'back'
    Surface_Name     = 'conic'
    Conic_Z          = 1
    Conic_Constant   = 0
    Conic_Tolerance  = 1e-06
    Conic_Relation   = '='
    BC_Type          = 'htc'
    BC_Variable      = 'temperature'
    BC_Value         = 1000.
    T0_convection    = 0.



/

&BC 
    bc_name          = 'front'
    Surface_Name     = 'conic'
    Conic_Z          = 1
    Conic_Constant   = -1
    Conic_Tolerance  = 1e-06
    Conic_Relation   = '='
    BC_Type          = 'neumann'
    BC_Variable      = 'temperature'
    BC_Value         = -100.

/

&OUTPUTS 

    Output_T                    = 0, 9000
    Output_Dt                   = 100
    Short_Output_Dt_Multiplier  = 1
    Long_Output_Dt_Multiplier   = 1
    Long_Edit_Bounding_Coords   = 0, 1.5, 0, 1, 0, 1
    XML_Output_Dt_Multiplier    = -1


/

&NUMERICS 

    dt_constant                = 500
    energy_nonlinear_solution  = 'nk'

/

&NONLINEAR_SOLVER 

    name                    = 'nk'
    method                  = 'nk'
    linear_solver_name      = 'nk-linear'
    convergence_criterion   = 1.0e-10
    maximum_iterations      = 50
    output_mode             = 'none'
    use_damper              = .true.
    Damper_Parameters       = 0.9, 1.1, 1.0, 1.0
    perturbation_parameter  = 1.0e-06

/

&LINEAR_SOLVER 

    name                    = 'nk-linear'
    method                  = 'fgmres'
    convergence_criterion   = 1.0e-10
    preconditioning_method  = 'ssor'
    relaxation_parameter    = 0.9
    preconditioning_steps   = 3

/

&PHASE_CHANGE_PROPERTIES 

    phase_change_active              = .true.
    phase_change_type                = 'alloy'
    phase_change_model               = 'scheil'
    Hi_Temp_Phase_Material_Id        = 1
    Lo_Temp_Phase_Material_Id        = 2
    Latent_Heat                      = 1000.0
    Liquidus_Slope                   = -1000.0
    Liquidus_temp                    = 900.0
    Melting_Temperature_Solvent      = 1000.0
    Partition_Coefficient_Constants  = 0.50
    Eutectic_Temperature             = 600.

/

&SENS_FUNCTION

                         sens_function_Name        = 'left enthalpy'
                         sens_function_type        = 'H'
                         sens_function_rparameters = 0., 0., 0.
/


&SENS_FUNCTION

                         sens_function_Name        = 'left temperature'
                         sens_function_type        = 'T'
                         sens_function_rparameters = 0., 0., 0.
/


&SENS_FUNCTION

                         sens_function_Name        = 'left VOF MATL 1'
                         sens_function_type        = 'VOF'
                         sens_function_rparameters = 0., 0., 0.
                         sens_function_iparameters = 1
/

&SENS_FUNCTION

                         sens_function_Name        = 'left VOF MATL 2'
                         sens_function_type        = 'VOF'
                         sens_function_rparameters = 0.0, 0., 0.
                         sens_function_iparameters = 2
/

&SENS_FUNCTION

                         sens_function_Name        = 'right enthalpy'
                         sens_function_type        = 'H'
                         sens_function_rparameters = 0.49, 0., 0.
/


&SENS_FUNCTION

                         sens_function_Name        = 'right temperature'
                         sens_function_type        = 'T'
                         sens_function_rparameters = 0.49, 0., 0.
/


&SENS_FUNCTION

                         sens_function_Name        = 'right VOF MATL 1'
                         sens_function_type        = 'VOF'
                         sens_function_rparameters = 0.49, 0., 0.
                         sens_function_iparameters = 1
/

&SENS_FUNCTION

                         sens_function_Name        = 'right VOF MATL 2'
                         sens_function_type        = 'VOF'
                         sens_function_rparameters = 0.49, 0., 0.
                         sens_function_iparameters = 2
/

&SENS_FUNCTION

                         sens_function_Name        = 'right most enthalpy'
                         sens_function_type        = 'H'
                         sens_function_rparameters = 1.1, 0., 0.
/

&SENS_FUNCTION

                         sens_function_Name        = 'left temperature rms'
                         sens_function_type        = 'sens_use_function'
                         sens_function_rparameters = 0., 0., 0., 
                            0.,   1000.,
                            1000., 778., 
                            2000., 591.,
                            3000., 494.,
                            4000., 434.,
                            5000., 396.,
                            6000., 369.,
                            7000., 350.,
                            8000., 337.,
                            9000., 327.
/


&SENS_VARIABLE
                       sens_variable_Name     = 'left bc_value 3'
                       sens_variable_value    = 80.
                       sens_variable_type     = 'BC'
                       sens_variable_identifier = 'left'
                       sens_variable_component = 'bc_value'
                       sens_variable_iparam    = 3
                       sens_variable_pert      = 0.1
/


&SENS_VARIABLE
                       sens_variable_Name     = 'right bc_value 1'
                       sens_variable_value    = 500.
                       sens_variable_type     = 'BC'
                       sens_variable_identifier = 'right'
                       sens_variable_component = 'bc_value'
                       sens_variable_pert      = 1.
/    

&SENS_VARIABLE
                       sens_variable_Name     = 'right bc_value 4' 
                       sens_variable_value    = 475.
                       sens_variable_type     = 'BC'
                       sens_variable_identifier = 'right'
                       sens_variable_component = 'bc_value'
                       sens_variable_iparam    = 4
                       sens_variable_pert      = 5.

/

&SENS_VARIABLE
                       sens_variable_Name     = 'center bc_value 1'
                       sens_variable_value    = 100.
                       sens_variable_type     = 'BC'
                       sens_variable_identifier = 'center'
                       sens_variable_component = 'bc_value'
                       sens_variable_pert      = 0.1
/

&SENS_VARIABLE
                       sens_variable_Name     = 'top bc_value 3'
                       sens_variable_value    = 800.
                       sens_variable_type     = 'BC'
                       sens_variable_identifier = 'top'
                       sens_variable_component = 'bc_value'
                       sens_variable_iparam    = 3
                       sens_variable_pert      = 1
/

&SENS_VARIABLE
                       sens_variable_Name     = 'bottom bc_value 1'
                       sens_variable_value    = 0.
                       sens_variable_type     = 'BC'
                       sens_variable_identifier = 'bottom'
                       sens_variable_component = 'bc_value'
                       sens_variable_pert      =  .5
/
&SENS_VARIABLE
                       sens_variable_Name     = 'front bc_value 1'
                       sens_variable_value    = -100.
                       sens_variable_type     = 'BC'
                       sens_variable_identifier = 'front'
                       sens_variable_component = 'bc_value'
                       sens_variable_pert      = 1.
/

&SENS_VARIABLE
                       sens_variable_Name     = 'back bc_value 1'
                       sens_variable_value    = 1000.
                       sens_variable_type     = 'BC'
                       sens_variable_identifier = 'back'
                       sens_variable_component = 'bc_value'
                       sens_variable_pert      = 1
/
&SENS_VARIABLE
                       sens_variable_Name     = 'back t0_convection'
                       sens_variable_value    = 0.
                       sens_variable_type     = 'BC'
                       sens_variable_identifier = 'back'
                       sens_variable_component = 't0_convection'
                       sens_variable_pert      = 0.1
/



