DIFFUSION SOLVER TEST 9

2D heat conduction in [-1,1]^2 with analytic steady state solution.
Tests boundary conditions with functional data, and source term.
Dirichlet conditions on top and bottom with exact polynomial data.
Flux condition on right with the exact polynomial flux data.
HTC condition on left with polynomial reference temperature that
conspires to give the exact polynomial flux.  Constant source, but
split as a constant on one half the domain, and an apparent function
on the other half.

The exact steady state solution is T(x,y) = 9 + 6*x*y - x**2 - y**2.

&MESH
  mesh_file = 'ds9.gen'
/

&OUTPUTS
  Output_T = 0.0, 1.0, 10.0
  Output_Dt = 0.1, 5.0
/

&PHYSICS
  materials = 'A'
  heat_transport = .true.
/

&DIFFUSION_SOLVER
  abs_temp_tol       = 0.0
  rel_temp_tol       = 1.0e-2
  abs_enthalpy_tol   = 0.0
  rel_enthalpy_tol   = 1.0e-2
  nlk_tol            = 0.05
  nlk_preconditioner = 'hypre_amg'
/

&NUMERICS
  dt_init = 1.0d-4
  dt_min  = 1.0d-9
  dt_grow = 10.0
/

&DS_SOURCE
  equation = 'temperature'
  cell_set_ids = 1
  source_constant = 1.0
/

&DS_SOURCE
  equation = 'temperature'
  cell_set_ids = 2
  source_function = 'one'
/

&FUNCTION
  name = 'one'
  type = 'polynomial'
  poly_coefficients(1) =  1.0, poly_exponents(:,1) = 0 0 0 0
/

&THERMAL_BC
  name = 'top/bottom'
  type = 'temperature'
  face_set_ids = 1, 3
  temp_func = 'steady solution'
/

&FUNCTION
  name = 'steady solution'
  type = 'polynomial'
  poly_coefficients(1) =  9.0, poly_exponents(:,1) = 0 0 0 0
  poly_coefficients(2) =  6.0, poly_exponents(:,2) = 0 1 1 0
  poly_coefficients(3) = -1.0, poly_exponents(:,3) = 0 2 0 0
  poly_coefficients(4) = -1.0, poly_exponents(:,4) = 0 0 2 0
/

&THERMAL_BC
  name = 'right'
  type = 'flux'
  face_set_ids = 2
  flux_func = 'steady right flux'
/

!&FUNCTION
!  name = 'steady right flux'
!  type = 'polynomial'
!  poly_coefficients(1) =  0.5, poly_exponents(:,1) = 0 0 0 0
!  poly_coefficients(2) = -1.5, poly_exponents(:,2) = 0 0 1 0
!/

&FUNCTION
  name = 'steady right flux'
  type = 'tabular'
  tabular_data = -1.0,  2.0
                  1.0, -1.0
  tabular_dim  = 3  ! y-coord
/

&THERMAL_BC
  name = 'left'
  type = 'htc'
  face_set_ids = 4
  htc = 0.5
  ambient_temp_func = 'left ambient'
/

&FUNCTION
  name = 'left ambient'
  type = 'polynomial'
  poly_coefficients(1) =  7.0, poly_exponents(:,1) = 0 0 0
  poly_coefficients(2) = -9.0, poly_exponents(:,2) = 0 0 1
  poly_coefficients(3) = -1.0, poly_exponents(:,3) = 0 0 2
/

&THERMAL_BC
  name = 'z-planes'
  type = 'flux'
  face_set_ids = 5
  flux = 0.0
/

&BODY
  surface_name = 'from mesh file'
  mesh_material_number = 1
  material_name = 'A'
  temperature = 7.0
/

&BODY
  surface_name = 'from mesh file'
  mesh_material_number = 2
  material_name = 'A'
  temperature = 7.0
/

&MATERIAL
  name = 'A'
  density = 1.0
  specific_heat = 1.0
  conductivity = 0.25
/
