DIFFUSION SOLVER TEST 9

2D heat conduction in [-1,1]^2 with analytic steady state solution.
Tests boundary conditions with functional data, and source term.
Dirichlet conditions on top and bottom with exact polynomial data.
Flux condition on right with the exact polynomial flux data.
HTC condition on left with polynomial reference temperature that
conspires to give the exact polynomial flux.  Constant source, but
split as a constant on one half the domain, and an apparent function
on the other half.

The exact steady state solution is T(x,y) = 9 + 6*x*y - x**2 - y**2.

&MESH
  mesh_file = 'ds9.gen'
/

&OUTPUTS
  Output_T = 0.0, 1.0, 10.0
  Output_Dt = 0.1, 5.0
/

&PHYSICS
  heat_transport = .true.
/

&DIFFUSION_SOLVER
  abs_temp_tol       = 0.0
  rel_temp_tol       = 1.0e-2
  abs_enthalpy_tol   = 0.0
  rel_enthalpy_tol   = 1.0e-2
  nlk_tol            = 0.05
  nlk_preconditioner = 'hypre_amg'
/

&NUMERICS
  dt_init = 1.0d-4
  dt_min  = 1.0d-9
  dt_grow = 10.0
/

&DS_SOURCE
  equation = 'temperature'
  cell_set_ids = 1
  source_constant = 1.0
/

&DS_SOURCE
  equation = 'temperature'
  cell_set_ids = 2
  source_function = 'one'
/

&FUNCTION
  name = 'one'
  type = 'polynomial'
  poly_coefficients(1) =  1.0, poly_exponents(:,1) = 0 0 0 0
/

&DS_BOUNDARY_CONDITION
  name = 'top/bottom'
  variable = 'temperature'
  condition = 'dirichlet'
  data_function = 'steady solution'
  face_set_ids = 1, 3
/

&FUNCTION
  name = 'steady solution'
  type = 'polynomial'
  poly_coefficients(1) =  9.0, poly_exponents(:,1) = 0 0 0 0
  poly_coefficients(2) =  6.0, poly_exponents(:,2) = 0 1 1 0
  poly_coefficients(3) = -1.0, poly_exponents(:,3) = 0 2 0 0
  poly_coefficients(4) = -1.0, poly_exponents(:,4) = 0 0 2 0
/

&DS_BOUNDARY_CONDITION
  name = 'right'
  variable = 'temperature'
  condition = 'flux'
  data_function = 'steady right flux'
  face_set_ids = 2
/

!&FUNCTION
!  name = 'steady right flux'
!  type = 'polynomial'
!  poly_coefficients(1) =  0.5, poly_exponents(:,1) = 0 0 0 0
!  poly_coefficients(2) = -1.5, poly_exponents(:,2) = 0 0 1 0
!/

&FUNCTION
  name = 'steady right flux'
  type = 'tabular'
  tabular_data = -1.0,  2.0
                  1.0, -1.0
  tabular_dim  = 3  ! y-coord
/

&DS_BOUNDARY_CONDITION
  name = 'left'
  variable = 'temperature'
  condition = 'htc'
  data_constant(1) = 0.5
  data_function(2) = 'left ambient'
  face_set_ids = 4
/

&FUNCTION
  name = 'left ambient'
  type = 'polynomial'
  poly_coefficients(1) =  7.0, poly_exponents(:,1) = 0 0 0
  poly_coefficients(2) = -9.0, poly_exponents(:,2) = 0 0 1
  poly_coefficients(3) = -1.0, poly_exponents(:,3) = 0 0 2
/

&DS_BOUNDARY_CONDITION
  name = 'z-planes'
  variable = 'temperature'
  condition = 'flux'
  data_constant = 0.0
  Face_Set_IDs = 5
/

&BODY
  surface_name = 'from mesh file'
  mesh_material_number = 1
  material_number = 1
  temperature = 7.0
/

&BODY
  surface_name = 'from mesh file'
  mesh_material_number = 2
  material_number = 1
  temperature = 7.0
/

&MATERIAL
  Material_Number        = 1,
  Material_Name          = 'A'
  material_feature       = 'background'
  Density                = 1.0
/

&PHASE
  name = 'A'
  property_name(1) = 'density',       property_constant(1) = 1.0
  property_name(2) = 'specific heat', property_constant(2) = 1.0
  property_name(3) = 'conductivity',  property_constant(3) = 0.25
/

&MATERIAL_SYSTEM
  name = 'A'
  phases = 'A'
/
