Generated by InputConvert.pl from 1D_diverging_duct.inp on Mon Aug  4 07:39:39 MDT 2003
-----------------
Flow Through a Diverging Nozzle\

Quasi-1D mesh contains ten cells (in the x-direction) in a
configuration like this:


                            ______
                      ______
                ______
          ______


   inlet (V = 1)            outlet (P = 3/8)

          ______
                ______
                      ______
                            ______



      width_in (y)  =  1
      width_out (y) =  2
      length (x)    = 10
      depth (z)     =  1

      inlet velocity = 1
      outlet pressure = 3/8

No viscosity, so this is a pure Bernoulli problem, with no change in
elevation (ie. no body force):

             P/rho + V**2/2 = const

We set the outlet pressure to 3/8 so that the (solved) inlet pressure
should be zero.  Exact answers for P and V as functions of x are:

             P = 1/2 - 1/2 * (1 + x/10)**-2)

             V = 1 / (1 + x/10)

The numerical answers aren't great, in part due to the coarse
resolution, in part due to the first order momentum advection.


&MESH
  mesh_file = 'diverging-duct.gen'
/

&OUTPUTS
  output_t  = 0.0, 20.0
  output_dt = 2.0
/
 
&LINEAR_SOLVER
  name                    = 'projection'
  method                  = 'fgmres'
  convergence_criterion   = 1.0e-10
  maximum_iterations      = 100
  krylov_vectors          = 200
  preconditioning_method  = 'ssor'
  relaxation_parameter    = 1.4
  preconditioning_steps   = 1
/

&LEGACY_FLOW
  projection_linear_solution  = 'projection'
  courant_number = 0.25
/

&NUMERICS
  dt_init = 1.e-03
  dt_grow = 1.05
  dt_min  = 1.e-03
  dt_max  = 1.0
  discrete_ops_type = 'ortho'
/

&PHYSICS
  legacy_flow = .true.
/

&BC
  surface_name     = 'conic'
  conic_x          = 1.
  conic_constant   = 0.
  conic_tolerance  = 1.e-6
  bc_variable      = 'velocity'
  bc_type          = 'dirichlet'
  bc_table         =  5.0,  1.0, 0.0, 0.0,
                     15.0,  0.5, 0.0, 0.0
/

&BC
  surface_name     = 'conic'
  conic_x          = 1.
  conic_constant   = -10.
  conic_tolerance  = 1.e-6
  bc_variable      = 'pressure'
  bc_type          = 'dirichlet'
  bc_value         = 0.68
/

&BODY
  material_number  = 1
  surface_name     = 'background'
  velocity         = 3*0.
  temperature      = 273.
/

&MATERIAL
  material_name = 'water'
  material_number = 1
  material_feature = 'background'
  priority = 1
  density = 1.0
/

&PHASE
  name = 'water'
  property_name(1) = 'density',       property_constant(1) = 1.0
  property_name(2) = 'specific heat', property_constant(2) = 1.0
/

&MATERIAL_SYSTEM
  name = 'water'
  phases = 'water'
/
