PLANE WAVE

&MESH
  mesh_file = 'meshes/pw1-hex-03.gen'
/

&OUTPUTS
  output_t = 0.0, 1.0e-6
  output_dt = 1.0e-6
/

&NUMERICS /

&PHYSICS
  materials = 'dielectric', 'VOID'
  heat_transport = T
  electromagnetics = T
/

&DIFFUSION_SOLVER
  abs_temp_tol = 0
  rel_temp_tol = 1e-4
  abs_enthalpy_tol = 0
  rel_enthalpy_tol = 1e-4
  verbose_stepping = T
/

### BODIES #####################################################################

&BODY
  surface_name = 'from mesh file'
  mesh_material_number = 1
  material_name = 'dielectric'
  temperature = 300.0
/

### BOUNDARY CONDITIONS ########################################################

&THERMAL_BC
  name = 'adiabatic'
  type = 'flux'
  face_set_ids = 1, 2, 3, 4
  !face_set_ids = 2, 3
  flux = 0.0
/

### EM HEATING #################################################################

&EM_MESH
  mesh_file = 'meshes/pw1-tet-03.gen'
/

&ELECTROMAGNETICS
  use_emfd_solver = T
  !use_mixed_form = T
  fd_solver_type = 'minres'
  !fd_solver_type = 'mumps'
  fd_precon_type = 'boomer' ! minres(none, gs, boomer)
  boomer_num_cycles = 2
  !boomer_interp_type = 6
  !boomer_relax_down_type = 13
  !boomer_relax_up_type = 14
  rel_tol = 1e-12
  max_iter = 100000
  print_level = 3
  graphics_output = T
  matl_change_threshold = 0.6
/

Frequency is specified here :/
&INDUCTION_SOURCE_FIELD
  !frequency = 500.0
  frequency = 2.45d9
  uniform_strength = 1
  orientation = 'z'
/

Open artificial boundary. This should introduce the right moving
wave and pass a left moving wave (there shouldn't be one).

&ELECTROMAGNETIC_BC
  name = 'artificial boundary'
  type = 'robin'
  face_set_ids = 1
  alpha = (0.0, 51.3482)
  g = (0.0, 0.0) (0.0, 102.6964) (0.0, 0.0)
/

Open artificial boundary. This should pass the right moving wave
and not introduce a left moving wave.

&ELECTROMAGNETIC_BC
  name = 'open'
  type = 'robin'
  face_set_ids = 2
  alpha = (0.0, 51.3482)
  g = (0.0, 0.0) (0.0, 0.0) (0.0, 0.0)
/

x-normal symmetry planes: nxH=0 on side set 3
This is the default BC -- no need to specify

y-normal symmetry planes: nxE=0
&ELECTROMAGNETIC_BC
  name = 'y=const'
  type = 'pec'
  face_set_ids = 4
/

### MATERIALS ##################################################################

### STUFF ###

&MATERIAL
  name = 'dielectric'
  density = 100.0
  specific_heat = 100.0
  conductivity = 1.0
  !electric_susceptibility = 3.0
  !electric_susceptibility_im = 0.1
  !magnetic_susceptibility = 0
/

