PLANE WAVE

&MESH
  mesh_file = 'meshes/pw1-hex-03.gen'
/

&OUTPUTS
  output_t = 0.0, 1.0e-6
  output_dt = 1.0e-6
/

&NUMERICS /

&PHYSICS
  microwave_heating = T
  materials = 'dielectric', 'VOID'
/

&DIFFUSION_SOLVER
  abs_temp_tol = 0
  rel_temp_tol = 1e-4
  abs_enthalpy_tol = 0
  rel_enthalpy_tol = 1e-4
  verbose_stepping = T
/

### BODIES #####################################################################

&BODY
  surface_name = 'from mesh file'
  mesh_material_number = 1
  material_name = 'dielectric'
  temperature = 300.0
/

### BOUNDARY CONDITIONS ########################################################

&THERMAL_BC
  name = 'adiabatic'
  type = 'flux'
  face_set_ids = 1, 2, 3, 4
  !face_set_ids = 2, 3
  flux = 0.0
/

### EM HEATING #################################################################

&EM_MESH
  mesh_file = 'meshes/pw1-tet-03.gen'
/

&MICROWAVE_HEATING
  frequency = 2.45d9
  prop_change_threshold = 0.6
/

&FDME_SOLVER
  !use_mixed_form = T
  solver_type = 'minres'
  precon_type = 'ssor'
  rel_tol = 1e-12
  max_iter = 100000
  ssor_num_cycles = 2
  ssor_omega = 0.9
  print_level = 2
  graphics_output = T
/

Open artificial boundary. This should introduce the right moving
wave and pass a left moving wave (there shouldn't be one).

&ELECTROMAGNETIC_BC
  name = 'artificial boundary'
  type = 'robin'
  face_set_ids = 1
  alpha = (0.0, 51.3482)
  g = (0.0, 0.0) (0.0, 102.6964) (0.0, 0.0)
/

Open artificial boundary. This should pass the right moving wave
and not introduce a left moving wave.

&ELECTROMAGNETIC_BC
  name = 'open'
  type = 'robin'
  face_set_ids = 2
  alpha = (0.0, 51.3482)
  g = (0.0, 0.0) (0.0, 0.0) (0.0, 0.0)
/

x-normal symmetry planes: nxH=0 on side set 3
This is the default BC -- no need to specify

y-normal symmetry planes: nxE=0
&ELECTROMAGNETIC_BC
  name = 'y=const'
  type = 'pec'
  face_set_ids = 4
/

### MATERIALS ##################################################################

### STUFF ###

&MATERIAL
  name = 'dielectric'
  density = 100.0
  specific_heat = 100.0
  conductivity = 1.0
/

