&MESH
  mesh_file = 'mesh1-rotx.gen'
/

&OUTPUTS
  output_t  = 0., 20.
  output_dt = 20.
/

&LINEAR_SOLVER
  name                    = 'projection'
  method                  = 'fgmres'
  convergence_criterion   = 1.0e-10
  maximum_iterations      = 100
  krylov_vectors          = 200
  preconditioning_method  = 'ssor'
  relaxation_parameter    = 1.4
  preconditioning_steps   = 1
/

&NUMERICS
  dt_init                     = 1.e-03
  dt_grow                     = 1.05
  dt_min                      = 1.e-03
  dt_max                      = 1.
  discrete_ops_type           = 'ortho'
  cutvof                      = 1.0e-08
/

&LEGACY_FLOW
  inviscid = .true.
  courant_number              = 0.5
  projection_linear_solution  = 'projection'
  volume_track_interfaces     = .false.
  volume_track_brents_method  = .true.
  volume_track_iter_tol       = 1.0e-12
/

&PHYSICS
  materials = 'water'
  legacy_flow = .true.
/

&BC
  surface_name = 'from mesh file'
  mesh_surface = 1
  bc_variable  = 'velocity'
  bc_type      = 'dirichlet'
  bc_value     = 1.0, 0.0, 0.0
/

&BC
  surface_name = 'from mesh file'
  mesh_surface = 2
  bc_variable  = 'pressure'
  bc_type      = 'dirichlet'
  bc_value     = 2.0
/

&BODY
  surface_name = 'from mesh file'
  mesh_material_number = 1
  material_name = 'water'
  velocity = 1.0, 0.0, 0.0
  temperature = 0.0
/

&MATERIAL
  name = 'water'
  is_fluid = T
  density = 4.0
  specific_heat = 1.0
/
