Generated by InputConvert.pl from 1D_diverging_duct.inp on Mon Aug  4 07:39:39 MDT 2003
-----------------
Flow Through a Diverging Nozzle\

Quasi-1D mesh contains ten cells (in the x-direction) in a
configuration like this:


                            ______
                      ______
                ______
          ______


   inlet (V = 1)            outlet (P = 3/8)

          ______
                ______
                      ______
                            ______



      width_in (y)  =  1
      width_out (y) =  2
      length (x)    = 10
      depth (z)     =  1

      inlet velocity = 1
      outlet pressure = 3/8

No viscosity, so this is a pure Bernoulli problem, with no change in
elevation (ie. no body force):

             P/rho + V**2/2 = const

We set the outlet pressure to 3/8 so that the (solved) inlet pressure
should be zero.  Exact answers for P and V as functions of x are:

             P = 1/2 - 1/2 * (1 + x/10)**-2)

             V = 1 / (1 + x/10)

The numerical answers aren't great, in part due to the coarse
resolution, in part due to the first order momentum advection.


&MESH

    mesh_file         = 'mesh0.gen'

/

&OUTPUTS

    Output_T                      = 0., 20.
    Output_Dt                     = 20.
    Int_Output_Dt_Multiplier      = 0
    Short_Output_Dt_Multiplier    = 1

/
 
&LINEAR_SOLVER

    name                    = 'projection'
    method                  = 'fgmres'
    convergence_criterion   = 1.0e-10
    maximum_iterations      = 100
    krylov_vectors          = 200
    preconditioning_method  = 'ssor'
    relaxation_parameter    = 1.4
    preconditioning_steps   = 1

/

&LEGACY_FLOW

    inviscid = .true.
    projection_linear_solution  = 'projection'
    volume_track_interfaces     = .false.
    volume_track_brents_method  = .true.
    volume_track_iter_tol       = 1.0e-12
    courant_number              = 0.5
/

&NUMERICS

    dt_init                     = 1.e-03
    dt_grow                     = 1.05
    dt_min                      = 1.e-03
    dt_max                      = 1.
    cutvof                      = 1.0e-08
    discrete_ops_type           = 'ortho'

/

&PHYSICS

    body_force_density = 0., 0., 0.
    legacy_flow = .true.

/

&BC

    Surface_Name     = 'conic'
    Conic_X          = 1.
    Conic_Constant   = 0.
    Conic_Tolerance  = 1.e-6
    BC_Variable      = 'velocity'
    BC_Type          = 'dirichlet'
    BC_Value         = 1., 0., 0.

/

&BC

    Surface_Name     = 'conic'
    Conic_X          = 1.
    Conic_Constant   = -10.
    Conic_Tolerance  = 1.e-6
    BC_Variable      = 'pressure'
    BC_Type          = 'dirichlet'
    BC_Value         = 0.68 !0.77777778 !0.875

/

&BODY

    Material_Number  = 1
    Surface_Name     = 'background'
    Velocity         = 3*0.
    Temperature      = 273.

/

&MATERIAL

    Material_Name           = 'water'
    Material_Number         = 1
    Material_Feature        = 'background'
    priority                = 1

    Density                 = 1.

/

&PHASE
  name = 'water'
  property_name(1) = 'density',       property_constant(1) = 1.0
  property_name(2) = 'specific heat', property_constant(2) = 1.0
/

&MATERIAL_SYSTEM
  name = 'water'
  phases = 'water'
/

&PARALLEL_PARAMETERS

    Partitioner  = 'Chaco', 

/
