GAP RADIATION TEST 2 (GAP-RAD-FLOW)
------------------------------
1D heat conduction on [-1,1] with an internal interface at x=0, where a gap
radiation interface condition is imposed.  No heat flux at either end.  The
initial temperature is ~1.5 on the left and ~0.5 on the right.  Stacked above
this is a simple 1D isothermal flow channel separated with an internal HTC
condition with 0 coefficient.  This effectively couples the two problems.
The purpose of the flow (and definition of an unused void material) is to
allow/force use of the special flow/HT solver. This problem has an approximate
analytic solution in the form of a 2-term asymptotic expansion in powers of
1/k, where k=100 is the thermal conductivity.  This test exercises interface
condition as implemented in the special 'FHT' solver; the associated gap-rad
test exercises the implementation in the normal 'HTSD' solver.

&MESH
  mesh_file = 'gap-rad-flow.g'
  interface_side_sets = 2, 3
/

&OUTPUTS
  Output_T = 0.0, 0.5
  Output_Dt = 5.0
/

&PROBE
  probe_name = 'left end'
  probe_coords = -0.96875, 0.0, 0.0
/

&PROBE
  probe_name = 'gap left'
  probe_coords = -0.03125, 0.0, 0.0
/

&PROBE
  probe_name = 'gap right'
  probe_coords = 0.03125, 0.0, 0.0
/

&PROBE
  probe_name = 'right end'
  probe_coords = 0.96875, 0.0, 0.0
/

&PHYSICS
  heat_transport = .true.
  legacy_flow = .true.
/

&PHYSICAL_CONSTANTS
  stefan_boltzmann = 0.125
/

&DIFFUSION_SOLVER
  stepping_method    = 'Non-adaptive BDF1'
  cond_vfrac_threshold = 1.0e-3
  residual_atol      = 1.0e-12
  residual_rtol      = 1.0e-6
  max_nlk_itr        = 10
  nlk_preconditioner = 'hypre_amg'
  !verbose_stepping   = .true.
/

&NUMERICS
  dt_constant = 9.765625e-4 ! = 1/1024
  discrete_ops_type = 'ortho' 
/

&LEGACY_FLOW
  projection_linear_solution = 'projection'
  volume_track_interfaces = .false.
/

&LINEAR_SOLVER
  name                   = 'projection'
  method                 = 'gmres'
  convergence_criterion  = 1.0e-12
  preconditioning_method = 'ssor'
  relaxation_parameter   = 1.4
  preconditioning_steps  = 4
  maximum_iterations     = 500
  output_mode            = 'summary'
/

&THERMAL_BC
  name = 'all external sides'
  face_set_ids = 1
  type = 'flux'
  flux = 0.0
/

&THERMAL_BC
  name = 'gap'
  face_set_ids = 2
  type = 'gap-radiation'
  emissivity = 0.5
/

&THERMAL_BC
  name = 'fluid/solid'
  face_set_ids = 3
  type = 'interface-htc'
  htc = 0.0
/

Inflow at left end of channel
&BC
  surface_name = 'from mesh file'
  mesh_surface = 4
  bc_variable  = 'velocity'
  bc_type      = 'dirichlet'
  bc_value     = 16.0, 0.0, 0.0
/

Outflow at right end of channel
&BC
  surface_name = 'from mesh file'
  mesh_surface = 5
  bc_variable  = 'pressure'
  bc_type      = 'dirichlet'
  bc_value     = 0.0
/

Left block (x<0):
Desired initial state is T = 1.5 - (5/16) (eps/k) (1+x)^2 + O(1/k^2)
where eps is the gap emissivity and k is the thermal conductivity.
T = 1.5*(1 - (5/48) 10^-2 (1-r)^2), where here r = |x|

&BODY
  surface_name = 'from mesh file'
  mesh_material_number = 1
  material_number = 1
  temperature_function = 'left-temp'
/

&FUNCTION
  name = 'left-temp'
  type = 'polynomial'
  poly_coefficients   = 1.5, -0.15625e-2, -0.3125e-2, -0.15625e-2
  poly_exponents(1,:) = 0, 0, 1, 2
/

Right block (x>0):
Desired initial state is T = 0.5 + (5/16) (eps/k) (1-x)^2 + O(1/k^2)
where eps is the gap emissivity and k is the thermal conductivity.
T = 0.5*(1 + (5/16) 10^-2 (1-r)^2), where here r = |x|

&BODY
  surface_name = 'from mesh file'
  mesh_material_number = 2
  material_number = 1
  temperature_function = 'right-temp'
/

&FUNCTION
  name = 'right-temp'
  type = 'polynomial'
  poly_coefficients   = 0.5, 0.15625e-2, -0.3125e-2, 0.15625e-2
  poly_exponents(1,:) = 0, 0, 1, 2
/

&BODY
  surface_name = 'from mesh file'
  mesh_material_number = 3
  material_number = 2
  temperature = 1.0
  velocity = 16.0, 0.0, 0.0
/

&MATERIAL
  material_number = 1
  material_name = 'solid'
  material_feature = 'background'
  density = 1.0
  immobile = .true.
/

&PHASE
  name = 'solid'
  property_name(1) = 'density',       property_constant(1) = 1.0
  property_name(2) = 'specific heat', property_constant(2) = 1.0
  property_name(3) = 'conductivity',  property_constant(3) = 1.0e2
/

&MATERIAL_SYSTEM
  name = 'solid'
  phases = 'solid'
/

&MATERIAL
  material_number = 2
  material_name = 'fluid'
  density = 1.0
/

&PHASE
  name = 'fluid'
  property_name(1) = 'density',       property_constant(1) = 1.0
  property_name(2) = 'specific heat', property_constant(2) = 1.0
  property_name(3) = 'conductivity',  property_constant(3) = 1.0e2
/

&MATERIAL_SYSTEM
  name = 'fluid'
  phases = 'fluid'
/

THIS FORCES/ALLOWS USE OF THE SPECIAL FLOW-HT SOLVER
&MATERIAL
  material_number = 3
  material_name = 'void'
  density = 0.0
/
