1D AXISYMMETRIC INDUCTION HEATING WITH TEMPERATURE-DEPENDENT EM PARAMETERS

Cylindrical conductor in a uniform, alternating magnetic field.  Domain is
one quarter of a thin cross-sectional slab, surrounded by some free-space.
The EM permeability and conductivity are temperature dependent.  The hex mesh
does not include any free space region.  The tet mesh conforms to the hex
mesh in the conductor, being obtained by subdivision of the hex cells.

&MESH
  mesh_file = 'em-qcyl-hex.gen'
  mesh_file_format = 'ExodusII'
  coordinate_scale_factor = 0.01
/

&ALTMESH
  altmesh_file = 'em-qcyl-tet.gen'
  altmesh_coordinate_scale_factor = 0.01
  parallel = .false.
/

&PHYSICS
  fluid_flow = .false.
  heat_conduction = .true.
  electromagnetics = .true.
/

&OUTPUTS
  Output_T = 0.0, 100.0
  Output_Dt = 5.0
/

&NUMERICS
  dt_constant = 5.0
  energy_nonlinear_solution = 'HT NLS'
  discrete_ops_type = 'ortho'
/

&NONLINEAR_SOLVER
  name = 'HT NLS'
  method = 'ain'
  linear_solver_name = 'AIN PC'
  convergence_criterion = 1.0e-10
/

&LINEAR_SOLVER
  name = 'AIN PC'
  method = 'none'
  preconditioning_method = 'ssor'
  preconditioning_steps = 4
  relaxation_parameter = 1.4
/

&ELECTROMAGNETICS
  EM_Domain_Type = 'quarter_cylinder'
  Uniform_Source = 2.3e4
  Source_Frequency = 500.0
  Steps_Per_Cycle = 12
  Maximum_Source_Cycles = 4
  SS_Stopping_Tolerance = 0.1
  Maximum_CG_Iterations = 100
  CG_Stopping_Tolerance = 1.0e-8
  Material_Change_Threshold = 0.6
  Output_Level = 2
/

Core of the conducting cylinder
&BODY
  Surface_Name = 'from mesh file'
  Mesh_Material_Number = 11
  Material_Number = 1
  Temperature = 301.0
/

Outer layer of the conducting cylinder
&BODY
  Surface_Name = 'from mesh file'
  Mesh_Material_Number = 12
  Material_Number = 1
  Temperature = 301.0
/

Symmetry planes: no heat flux
&BC
  Surface_Name = 'from mesh file'
  Mesh_Surface = 1
  BC_Variable = 'temperature'
  BC_Type = 'hneumann'
/

Cylinder surface: no heat flux
&BC
  Surface_Name = 'from mesh file'
  Mesh_Surface = 2
  BC_Variable = 'temperature'
  BC_Type = 'hneumann'
/

&MATERIAL
  Material_Number = 1
  Material_Name = 'conductor'
  Material_Feature = 'background'
  Density = 200.0
  Cp_Constants = 150.0
  Conductivity_Constants = 0.1
  Reference_Temperature = 300.0
  EM_Conductivity_Relation = 'temperature_polynomial'
  EM_Conductivity_Constants = 0.25e4, 0.75e-4
  EM_Conductivity_Exponents = 0, 4
  EM_Permittivity_Constants = 1.0
  EM_Permeability_Relation = 'temperature_polynomial'
  EM_Permeability_Constants = 2.0, -4.0e-2, 6.0e-4, -4.0e-6, 1.0e-8
  EM_Permeability_Exponents = 0, 1, 2, 3, 4
/
