LINEAR STEADY STATE CONDUCTION IN 100 DIRECTION WITH TET MESH

A basic heat conduction test in [0,1]^3 with a linear steady state solution
between fixed temperatures on opposing faces of the cube, with no-flux BC on
the other faces.  Here we are concerned with recovering the steady state
solution T = 1 + a*x + b*y + c*z, H = 2*T for a given direction abc, and not
not so much with the transient approach to steady state.

&MESH
  mesh_file = 'cube-tet.g'
/

&OUTPUTS
  output_t = 0.0, 500.0
  output_dt = 500.0
/

&PHYSICS
  heat_transport = .true.
  fluid_flow = .false.
/

&DIFFUSION_SOLVER
  abs_temp_tol       = 0.0
  rel_temp_tol       = 1.0e-4
  abs_enthalpy_tol   = 0.0
  rel_enthalpy_tol   = 1.0e-4
  nlk_tol            = 0.05
  nlk_preconditioner = 'hypre_amg'
  verbose_stepping   = .true.
/

&NUMERICS
  dt_init = 1.0d-5
  dt_min  = 1.0d-7
  dt_grow = 10.0
  dt_max  = 100.0
/

&DS_BOUNDARY_CONDITION
  name = 'left dirichlet'
  variable = 'temperature'
  condition = 'dirichlet'
  face_set_ids = 1
  data_constant = 1.0
/

&DS_BOUNDARY_CONDITION
  name = 'right dirichlet'
  variable = 'temperature'
  condition = 'dirichlet'
  face_set_ids = 2
  data_constant = 2.0
/

&DS_BOUNDARY_CONDITION
  name = 'symmetry planes'
  variable = 'temperature'
  condition = 'flux'
  face_set_ids = 3, 4, 5, 6
  data_constant = 0.0
/

&BODY
  surface_name = 'from mesh file'
  mesh_material_number = 1
  material_number = 1
  temperature = 1.0
/

&MATERIAL
  material_number = 1
  material_name = 'stuff'
  density = 1.0 ! == not void
  material_feature = 'background'
/

&PHASE
  name = 'stuff'
  property_name(1) = 'density',       property_constant(1) = 4.0
  property_name(2) = 'specific heat', property_constant(2) = 0.5
  property_name(3) = 'conductivity',  property_constant(3) = 1.0
/

&MATERIAL_SYSTEM
  name = 'stuff'
  phases = 'stuff'
/
