SOLIDIFYING FLOW
----------------
2D, 1 x 0.5 domain with uniform 0.1 resolution hex mesh.

1D heat conduction/phase change problem, top to bottom. Uniform hot initial
temperature (above liquidus), with a cold top boundary temperature (below
solidus), and adiabatic BC everywhere else.  Liquid/solid interface propogates
down from the top, cell-by-cell. Not until the very end is more than one cell
in the mushy zone.

1D steady inviscid flow from left to right. Unit inflow velocity on the left
and 0 pressure BC on the right. Free slip everywhere else.

Handling of inflow enthalpy advection should conspire to give the solution
on an infinitely long (in x) domain.

This is intended to test how the momentum of solidified fluid is handled in
the flow solver.

&MESH
  mesh_file = 'mesh2.g'
/

&OUTPUTS
  Output_T = 0.0, 0.25, 5.0
  Output_Dt = 0.25, 5.0
/

A kludge to force hitting the final time exactly
&SIMULATION_CONTROL
  phase_start_times = 0.25, 5.0
  phase_init_dt_factor = 1.0
/

&NUMERICS
  dt_init = 1.0d-4
  dt_min  = 1.0d-9
  dt_max  = 2.0d-2
  dt_grow = 1.05
  !cycle_max = 100
/

&PHYSICS
  heat_transport = .true.
  flow = .true.
/

&FLOW
  inviscid = .true.
  courant_number = 0.25
  subcycles = 2
  nested_dissection = .false.
/

&FLOW_PRESSURE_SOLVER
  rel_tol = 0.0
  abs_tol = 1.0e-12
  max_ds_iter = 50
  max_amg_iter = 25
  krylov_method = 'cg'
/

&FLOW_BC
  name = 'inlet'
  face_set_ids = 1
  type = 'velocity'
  velocity = 1.0, 0.0, 0.0
/

&FLOW_BC
  name = 'outlet'
  face_set_ids = 2
  type = 'pressure'
  pressure = 0.0
/

&FLOW_BC
  name = 'sides'
  type = 'free-slip'
  face_set_ids = 3, 4
/

&DIFFUSION_SOLVER
  abs_temp_tol       = 0.0
  rel_temp_tol       = 1.0e-5
  abs_enthalpy_tol   = 0.0
  rel_enthalpy_tol   = 1.0e-5
  max_nlk_itr        = 10
  nlk_tol            = 0.001
  nlk_preconditioner = 'hypre_amg'
  verbose_stepping   = .true.
/

&DS_BOUNDARY_CONDITION
  name = 'adiabatic'
  variable = 'temperature'
  condition = 'flux'
  face_set_ids = 1, 2, 3
  data_constant = 0.0
/

&DS_BOUNDARY_CONDITION
  name = 'wall'
  variable = 'temperature'
  condition = 'dirichlet'
  face_set_ids = 4
  data_constant = 1.0
/

&BODY
  surface_name = 'background'
  material_number = 2
  temperature = 15.0
  velocity = 1.0, 0.0, 0.0
/

&MATERIAL
  material_number = 1
  material_name = 'solid'
  immobile = .true.
  density = 1.0 ! not void
/

&PHASE
  name = 'solid'
  property_name(1) = 'density',       property_constant(1) = 1.0
  property_name(2) = 'specific heat', property_constant(2) = 1.0
  property_name(3) = 'conductivity',  property_constant(3) = 0.02
/

&MATERIAL
  material_number = 2
  material_name = 'liquid'
  density = 1.0 ! not void
  material_feature = 'background'
/

&PHASE
  name = 'liquid'
  property_name(1) = 'density',       property_constant(1) = 1.0
  property_name(2) = 'specific heat', property_constant(2) = 1.0
  property_name(3) = 'conductivity',  property_constant(3) = 0.02
/

&MATERIAL_SYSTEM
  name = 'water'
  phases = 'solid', 'liquid'
  transition_temps_low = 9.95
  transition_temps_high = 10.05
  smoothing_radius = 0.049999
  latent_heat = 10.0
/
