FREEZING STATIONARY FLUID WITH VOID
-----------------------------------
A column of fluid topped with void that freezes from the bottom up.
Flow is enabled, but the fluid should remain stationary. This is a
basic sanity check for coupling flow to phase change.

Problem starts with fluid/void, then solid/fluid/void, and finally
solid/void with no fluid present (other than void).

&MESH
  mesh_file = 'mesh1.g'
/

&OUTPUTS
  Output_T = 0.0, 0.2, 1.6
  Output_Dt = 0.2, 1.4
/

&PHYSICS
  materials = 'water', 'VOID'
  heat_transport = .true.
  legacy_flow = .true.
/

&LEGACY_FLOW
  inviscid = .true.
  courant_number = 0.25
  projection_linear_solution = 'projection'
  volume_track_subcycles = 2
/

&LINEAR_SOLVER
  name = 'projection'
  method = 'fgmres'
  preconditioning_method = 'ssor'
  preconditioning_steps  = 2
  relaxation_parameter   = 1.4
  convergence_criterion  = 1.0e-10
/

&DIFFUSION_SOLVER
  stepping_method = 'Non-adaptive BDF1'
  residual_atol = 1.0e-8
  residual_rtol = 1.0e-6
  !abs_temp_tol       = 0.0
  !rel_temp_tol       = 1.0e-3
  !abs_enthalpy_tol   = 0.0
  !rel_enthalpy_tol   = 1.0e-3
  nlk_tol            = 0.01
  nlk_preconditioner = 'hypre_amg'
  verbose_stepping   = .true.
/

&NUMERICS
  dt_init = 1.0d-3
  dt_min  = 1.0d-9
  dt_max  = 2.0d-2
  dt_grow = 1.03
/

&DS_BOUNDARY_CONDITION
  name = 'left end'
  variable = 'temperature'
  condition = 'dirichlet'
  face_set_ids = 1
  data_function = 'end-temp'
/

&FUNCTION
 name = 'end-temp'
 type = 'tabular'
 tabular_data(1,:) = 0.0, 0.2, 0.3, 0.4
 tabular_data(2,:) = 7.0, 1.0, 1.0, 1.0
 tabular_interp = 'akima'
/

&DS_BOUNDARY_CONDITION
  name = 'adiabatic'
  variable = 'temperature'
  condition = 'flux'
  face_set_ids = 2, 3
  data_constant = 0.0
/

Void to the right
&BODY
  surface_name = 'plane'
  axis = 'x'
  translation_pt = 1.0, 0.0, 0.0
  material_name = 'VOID'
  temperature = 7.0
  velocity = 3*0.0
/

Liquid to the left
&BODY
  surface_name = 'background'
  material_name = 'liquid'
  temperature = 7.0
  velocity = 3*0.0
/


&MATERIAL
  name = 'water'
  phases = 'solid', 'liquid'
/

&PHASE
  name = 'solid'
  density = 4.0
  specific_heat = 0.25
  conductivity = 5.0
/

&PHASE
  name = 'liquid'
  is_fluid = T
  density = 4.0
  specific_heat = 0.25
  conductivity = 5.0
/

&PHASE_CHANGE
  low_temp_phase = 'solid'
  high_temp_phase = 'liquid'
  solidus_temp = 5.0
  liquidus_temp = 6.0
  latent_heat = 2.0
  smoothing_radius = 0.5
/
