&MESH
  mesh_file = 'mesh3.g'
/

&OUTPUTS
  output_t  = 0.0, 4.8
  output_dt = 0.4
/

&PHYSICS
  flow = .true.
/

&NUMERICS
  dt_init = 0.001
  dt_grow = 1.05
  dt_min  = 1.0e-05
  dt_max  = 1.0
/

&FLOW
  inviscid = t
  courant_number = 0.25
  vol_track_subcycles = 2
  nested_dissection = f
/

&FLOW_PRESSURE_SOLVER
  rel_tol = 0.0
  abs_tol = 1.0e-10
  max_ds_iter = 50
  max_amg_iter = 50
  krylov_method = "cg"
/

&FLOW_BC
  name = 'left'
  condition = 'pressure'
  face_set_ids = 1
  data_constant = 0.0
/

&FLOW_BC
  name = 'right'
  condition = 'pressure'
  face_set_ids = 2
  data_constant = 0.0
/

&FLOW_BC
  name = 'symmetry'
  condition = 'slip'
  face_set_ids = 3
/
 
Fluid plug
&BODY
  surface_name = 'box'
  length = 1.0, 1.0, 1.0
  translation_pt = -2.4, 0.0, 0.0
  material_number = 1
  velocity = 1.0, 0.0, 0.0
  temperature = 0.0
/

Surrounding void
&BODY
  surface_name = 'background'
  mesh_material_number = 2
  material_number = 2
  velocity = 1.0, 0.0, 0.0
  temperature = 0.0
/

&INTERFACES
 vof_method = 'divide'
 vof_tolerance = 1.0e-3
/

&MATERIAL
  material_name = 'water'
  material_number = 1
  density = 1.0 ! not void
/

&PHASE
  name = 'water'
  property_name(1) = 'density', property_constant(1) = 1.0
/

&MATERIAL_SYSTEM
  name = 'water'
  phases = 'water'
/

&MATERIAL
  material_name = 'void'
  material_number = 2
  density = 0.0
  material_feature = 'background'
/
