&MESH
  mesh_file = 'u-tube-1.g'
/

&OUTPUTS
  output_t  = 0.0, 9.0
  output_dt = 0.1
/

&PHYSICS
  materials = 'water', 'VOID'
  flow = .true.
  body_force_density = 0.0, -1.0, 0.0
/

&NUMERICS
  dt_init = 0.001
  dt_grow = 1.05
  dt_min  = 1.0e-05
  dt_max  = 1.0
/

&FLOW
  inviscid = t
  courant_number = 0.25
  vol_track_subcycles = 2
  nested_dissection = f
/

&FLOW_PRESSURE_SOLVER
  rel_tol = 0.0
  abs_tol = 1.0e-10
  max_ds_iter = 50
  max_amg_iter = 50
  krylov_method = "cg"
/

&FLOW_BC
  name = 'boundary'
  condition = 'slip'
  face_set_ids = 1
/

&BODY
  surface_name = 'from mesh file'
  mesh_material_number = 1
  material_name = 'water'
  velocity = 3*0.0
  temperature = 0.0
/

&BODY
  surface_name = 'from mesh file'
  mesh_material_number = 2
  material_name = 'VOID'
  velocity = 3*0.0
  temperature = 0.0
/

&MATERIAL
  name = 'water'
  is_fluid = T
  density = 1.0
/
