#### SIMULATION CONTROL

&MESH
  x_axis%coarse_grid = -1.0, 1.0
  y_axis%coarse_grid = -1.0, 1.0
  z_axis%coarse_grid = -0.25, 0.0
  x_axis%intervals   = 32
  y_axis%intervals   = 32
  z_axis%intervals   = 4
/

&OUTPUTS
  Output_T  = 0.0, 2.1
  Output_Dt = 2.1 !0.1
  !move_block_ids = 1
  !move_toolpath_name = 'path3'
/

&SIMULATION_CONTROL
  event_lookahead = 3
/

&NUMERICS
  dt_init = 1.0e-4
  dt_grow = 5.0
  dt_min  = 1.0e-6
/

&PHYSICS
  materials = 'stuff'
  heat_transport = .true.
/

&DIFFUSION_SOLVER
  abs_temp_tol = 0.0
  rel_temp_tol = 1.0e-3
  abs_enthalpy_tol = 0.0
  rel_enthalpy_tol = 1.0e-2
  nlk_tol = 0.01
  max_nlk_itr = 5
  pc_amg_cycles = 2
  nlk_preconditioner = 'hypre_amg'
/


#### INITIAL CONDITIONS

&BODY
  surface_name = 'from mesh file'
  mesh_material_number = 1
  material_name = 'stuff'
  temperature = 300.0
/


#### BOUNDARY CONDITIONS & SOURCES

&TOOLHEAD
  name = 'head1'
  toolpath = 'path1'
  laser_type = 'gaussian'
  laser_time_const = 2e-2
  laser_power = 5.0 ! [W]
  laser_sigma = 0.15
  laser_direction = 2, 1, -1
/

&TOOLHEAD
  name = 'head2'
  toolpath = 'path2'
  laser_type = 'gaussian'
  laser_time_const = 2e-2
  laser_power = 5.0 ! [W]
  laser_sigma = 0.15
  laser_direction = -1, 2, -1
/

&TOOLPATH
  name = 'path1'
  start_coord = -0.5, 0.5, 0.0
  command_string = '[["setflag",0],["moverel",[1,0,0],1],["clrflag",0],["dwell",0.5],["setflag",0],["moverel",[0,-1,0],2],["clrflag",0]]'
/

&TOOLPATH
  name = 'path2'
  start_coord = 0.5, -0.5, 0.0
  command_string = '[["setflag",0],["moverel",[-1,0,0],2],["clrflag",0],["dwell",0.5],["setflag",0],["moverel",[0,1,0],1],["clrflag",0]]'
/

&TOOLPATH
  name = 'path3'
  start_coord = 0.5, -0.5, 0.0
  command_string = '[["moverel",[1,0,0],2],["dwell",0.5],["moverel",[0,-1,0],1]]'
/

&THERMAL_BC
  name = 'laser1'
  face_set_ids = 6
  type = 'oriented-flux'
  vflux_func = 'laser1'
  absorptivity = 1.0
/

&VFUNCTION
  name = 'laser1'
  type = 'toolhead-laser'
  toolhead = 'head1'
/

&THERMAL_BC
  name = 'laser2'
  face_set_ids = 6
  type = 'oriented-flux'
  vflux_func = 'laser2'
  absorptivity = 1.0
/

&VFUNCTION
  name = 'laser2'
  type = 'toolhead-laser'
  toolhead = 'head2'
/

&THERMAL_BC
  name = 'adiabatic-sides'
  face_set_ids = 1, 2, 3, 4, 5
  type = 'flux'
  flux = 0.0
/


#### MATERIALS

&MATERIAL
  name = 'stuff'
  density = 1. ! [kg / m^3]
  specific_heat = 1. ! [J / kg * C]
  conductivity = 2e-1 ! [W / m * C]
/
