DIFFUSION SOLVER TEST 11

Spherically symmetric phase change problem in an annular wedge with internal
HTC interface condition between the outer mold shell and the inner metal.
Exercises the handling of gap cells in the mapping back and forth between
MATL and the material mesh function used by the diffusion solver.

&MESH
  mesh_file = 'ds11-gaps.g'
  gap_element_blocks = 10   ! gap elements were inserted by add gaps along sideset 10
/

An alternative that doesn't use gap elements.
Should give the same results
#&MESH
  mesh_file = 'ds11.g'
  interface_side_sets = 10
/

&OUTPUTS
  Output_T = 0.0, 1.5, 2.5
  Output_Dt = 1.5, 0.5
/

&PHYSICS
  heat_transport = .true.
/

&PHYSICAL_CONSTANTS
  stefan_boltzmann = 1.0e-4
/

&DIFFUSION_SOLVER
  abs_temp_tol       = 0.0
  rel_temp_tol       = 1.0e-4
  abs_enthalpy_tol   = 0.0
  rel_enthalpy_tol   = 1.0e-4
  nlk_preconditioner = 'hypre_amg'
  pc_amg_cycles      = 1
  nlk_tol = 0.02
/

&NUMERICS
  dt_init = 5.0d-4
  dt_min  = 1.0d-7
  dt_grow = 10.0
/

No flux on symmetry planes
&THERMAL_BC
  name = 'symmetry planes'
  type = 'flux'
  face_set_ids = 1
  flux = 0.0
/

No flux on inner surface
&THERMAL_BC
  name = 'inner surface'
  type = 'flux'
  face_set_ids = 2
  flux = 0.0
/

Radiation from outer surface
&THERMAL_BC
  name = 'outer surface'
  type = 'radiation'
  face_set_ids = 3
  emissivity = 0.8
  ambient_temp = 1.0
/

HTC across interface between mold and metal
&THERMAL_BC
  name = 'mold/metal interface'
  type = 'interface-htc'
  htc = 5.0
  face_set_ids = 10
/

&BODY
  surface_name = 'from mesh file'
  mesh_material_number = 1
  material_number = 3
  temperature = 10.0
/

&BODY
  surface_name = 'from mesh file'
  mesh_material_number = 2
  material_number = 1
  temperature = 10.0
/

&BODY
  surface_name = 'from mesh file'
  mesh_material_number = 10
  material_number = 1
  temperature = 0.0
/

&MATERIAL
  material_number = 1
  material_name = 'mold'
  material_feature = 'background'
  density = 1.0
/

&PHASE
  name = 'mold'
  property_name(1) = 'density',       property_constant(1) = 1.0
  property_name(2) = 'specific heat', property_constant(2) = 1.0 
  property_name(3) = 'conductivity',  property_constant(3) = 0.1
/

&MATERIAL_SYSTEM
  name = 'mold'
  phases = 'mold'
/

&MATERIAL
  material_number = 2
  material_name = 'metal-solid'
  density = 1.0
/

&PHASE
  name = 'metal-solid'
  property_name(1) = 'density',       property_constant(1) = 1.0  
  property_name(2) = 'specific heat', property_constant(2) = 1.0
  property_name(3) = 'conductivity',  property_constant(3) = 0.1  
/

&MATERIAL
  material_number = 3
  material_name = 'metal-liquid'
  density = 1.0
/

&PHASE
  name = 'metal-liquid'
  property_name(1) = 'density',       property_constant(1) = 1.0  
  property_name(2) = 'specific heat', property_constant(2) = 1.0
  property_name(3) = 'conductivity',  property_constant(3) = 0.1  
/

&MATERIAL_SYSTEM
  name = 'metal'
  phases = 'metal-solid', 'metal-liquid'
  transition_temps_low  = 7.9
  transition_temps_high = 8.0
  latent_heat           = 0.5
/
