INVISCID FLUID PLUG TRAVELLING DOWN PIPE WITH VOID
--------------------------------------------------
This is a simple 1D inviscid fluid/void flow problem. The 2d 5x1 pipe domain is
void except for a plug of fluid near the left end but bordered by void on either
side. The fluid has an initial velocity of 1. The fluid plug should move down
the pipe with speed 1. The simulation ends before the plug reaches the right end.

We should recover the exact solution: P=0, V=(1,0,0) on cells with fluid, with
the fluid/void interfaces moving at speed 1 to the right.
 
&MESH
  mesh_file = 'mesh2.g'
/

&OUTPUTS
  output_t  = 0.0, 3.0
  output_dt = 1.5
/

&PHYSICS
  materials = 'water', 'VOID'
  legacy_flow = .true.
/

&NUMERICS
  dt_init = 0.001
  dt_grow = 1.05
  dt_min  = 1.0e-05
  dt_max  = 1.0
/

&LEGACY_FLOW
  inviscid = .true.
  volume_track_interfaces = .true.
  volume_track_brents_method  = .true.
  volume_track_iter_tol = 1.0e-12
  volume_track_subcycles = 2
  projection_linear_solution = 'projection'
  body_force_face_method = .true.
  courant_number = 0.25
/

&LINEAR_SOLVER
  name = 'projection'
  method = 'fgmres'
  preconditioning_method = 'ssor'
  convergence_criterion  = 1.0e-10
  relaxation_parameter   = 1.4
  preconditioning_steps  = 2
  maximum_iterations     = 200
/

INFLOW
&BC
  surface_name = 'from mesh file'
  mesh_surface = 1
  !bc_variable  = 'velocity'
  !bc_type      = 'dirichlet'
  !bc_value     = 1.0, 0.0, 0.0
  !inflow_material = 'water'
  bc_variable  = 'pressure'
  bc_type      = 'dirichlet'
  bc_value     = 0.0
/

OUTFLOW
&BC
  surface_name = 'from mesh file'
  mesh_surface = 2
  bc_variable  = 'pressure'
  bc_type      = 'dirichlet'
  bc_value     = 0.0
/
 
Fluid plug
&BODY
  surface_name = 'box'
  length = 1.0, 1.0, 2.0
  translation_pt = -1.5, 0.0, 0.0
  material_name = 'water'
  velocity = 1.0, 0.0, 0.0
  temperature = 0.0
/

Surrounding void
&BODY
  surface_name = 'background'
  mesh_material_number = 2
  material_name = 'VOID'
  velocity = 1.0, 0.0, 0.0
  temperature = 0.0
/


&MATERIAL
  name = 'water'
  is_fluid = T
  density = 1.0
/
