INVISCID FLUID / VOID BROKEN DAM PROBLEM
----------------------------------------
2D broken dam problem in a box (no inflow/outflow) with inviscid fluid and void.

&MESH
  mesh_file = 'mesh1.g'
/

&OUTPUTS
  output_t  = 0.0, 1.0
  output_dt = 1.0
  !output_dt = 0.1
/

&PHYSICS
  materials = 'water', 'VOID'
  legacy_flow = .true.
  body_force_density = 0.0, -1.0, 0.0
/

&NUMERICS
  dt_init = 0.001
  dt_grow = 1.05
  dt_min  = 1.0e-05
  dt_max  = 1.0
/

&LEGACY_FLOW
  inviscid = .true.
  volume_track_interfaces = .true.
  volume_track_brents_method  = .true.
  volume_track_iter_tol = 1.0e-12
  volume_track_subcycles = 2
  projection_linear_solution = 'projection'
  body_force_face_method = .true.
  courant_number = 0.25
/

&LINEAR_SOLVER
  name = 'projection'
  method = 'fgmres'
  preconditioning_method = 'ssor'
  convergence_criterion  = 1.0e-12
  relaxation_parameter   = 1.4
  preconditioning_steps  = 2
  maximum_iterations     = 200
/

&BODY
  surface_name = 'from mesh file'
  mesh_material_number = 1
  material_name = 'water'
  velocity = 3*0.0
  temperature = 0.0
/

&BODY
  surface_name = 'from mesh file'
  mesh_material_number = 2
  material_name = 'VOID'
  velocity = 3*0.0
  temperature = 0.0
/

&MATERIAL
  name = 'water'
  is_fluid = T
  density = 1.0
/
