&MESH
  mesh_file = 'mesh3.g'
/

&OUTPUTS
  output_t  = 0.0, 4.8
  output_dt = 0.4
/

&PHYSICS
  materials = 'water', 'VOID'
  legacy_flow = .true.
/

&NUMERICS
  dt_init = 0.001
  dt_grow = 1.05
  dt_min  = 1.0e-05
  dt_max  = 1.0
/

&LEGACY_FLOW
  inviscid = .true.
  volume_track_interfaces = .true.
  volume_track_brents_method  = .true.
  volume_track_iter_tol = 1.0e-12
  volume_track_subcycles = 2
  projection_linear_solution = 'projection'
  body_force_face_method = .true.
  courant_number = 0.25
/

&LINEAR_SOLVER
  name = 'projection'
  method = 'fgmres'
  preconditioning_method = 'ssor'
  convergence_criterion  = 1.0e-10
  relaxation_parameter   = 1.4
  preconditioning_steps  = 2
  maximum_iterations     = 200
/

INFLOW
&BC
  surface_name = 'from mesh file'
  mesh_surface = 1
  !bc_variable  = 'velocity'
  !bc_type      = 'dirichlet'
  !bc_value     = 1.0, 0.0, 0.0
  !inflow_material = 'water'
  bc_variable  = 'pressure'
  bc_type      = 'dirichlet'
  bc_value     = 0.0
/

OUTFLOW
&BC
  surface_name = 'from mesh file'
  mesh_surface = 2
  bc_variable  = 'pressure'
  bc_type      = 'dirichlet'
  bc_value     = 0.0
/
 
Fluid plug
&BODY
  surface_name = 'box'
  length = 1.0, 1.0, 1.0
  translation_pt = -2.4, 0.0, 0.0
  material_name = 'water'
  velocity = 1.0, 0.0, 0.0
  temperature = 0.0
/

Surrounding void
&BODY
  surface_name = 'background'
  mesh_material_number = 2
  material_name = 'VOID'
  velocity = 1.0, 0.0, 0.0
  temperature = 0.0
/


&MATERIAL
  name = 'water'
  is_fluid = T
  density = 1.0
/
