&MESH
  !mesh_file = 'mesh33.exo'
  x_axis%coarse_grid = 0.0, 1.0
  y_axis%coarse_grid = 0.0, 1.0
  z_axis%coarse_grid = -.01, .01
  x_axis%intervals = 33
  y_axis%intervals = 33
  z_axis%intervals = 1
/

&OUTPUTS
  output_t = 0.0, 40.0
  output_dt = 1.0
/

&FLOW
  inviscid = F
  viscous_implicitness = 0.5
  courant_number = 0.5
/

&FLOW_PRESSURE_SOLVER
  rel_tol = 0.0
  abs_tol = 1e-10,
  max_ds_iter = 50
  max_amg_iter = 10
/

&FLOW_VISCOUS_SOLVER
  rel_tol = 1e-8
  abs_tol = 0.0
  max_ds_iter = 10
  max_amg_iter = 5
/

&PHYSICS
  flow = T
  materials = 'water'
/

&NUMERICS
 dt_init = 1e-3
 dt_grow = 1.1
 dt_min  = 1e-5
 dt_max  = 1e-1
/

&FLOW_BC
  name = 'x-, x+, y-'
  type = 'no-slip'
  face_set_ids = 1, 2, 3
/

&FLOW_BC
  name = 'y+'
  type = 'velocity'
  face_set_ids = 4
  velocity = 1.0, 0.0, 0.0
/

&BODY
  material_name = 'water'
  surface_name  = 'background'
  velocity      = 0.0, 0.0, 0.0
  temperature   = 0.0
/

&MATERIAL
  name = 'water'
  is_fluid = T
  density = 1.0
  specific_heat = 1.0
  viscosity = 0.01
/
