  One Dimensional Piston Flow 
      this calculation is to test out the void collapse model
      initially there are three void cells at one end of a 1D channel and an inlet velocity at the other
         
&MESH
 
       Mesh_File = 'mesh.exo'
 
/
 
&OUTPUTS
 
       Output_T = 0.0, 0.4, Output_Dt = 0.01,
       Output_Dt_Multiplier      =  -1,

/

&LINEAR_SOLVER

      name                   = 'projection',
      method                 = 'gmres',
      convergence_criterion  = 1.0e-10,
      preconditioning_method = 'ssor',
      relaxation_parameter   = 1.4,
      preconditioning_steps  = 3,
      stopping_criterion     = '||r||'
      maximum_iterations     = 100,
      output_mode            = 'summary'
/


&LEGACY_FLOW
       inviscid = .true.
       projection_linear_solution = 'projection'
       volume_track_interfaces    = .true.
       volume_track_Brents_Method = .true.
       volume_track_subcycles     = 1,
       volume_track_iter_Tol      = 1.0e-9
       courant_number             = 0.4
       sound_speed                = 1000.0
/

&NUMERICS
       cycle_max                  = 30
       dt_constant                = 0.01
       discrete_ops_type          = 'ortho'
       cutvof                     = 1.0e-8,
/

&PHYSICS
  materials = 'fluid', 'VOID'
 
       body_force_density = 0.0, 0.0, 0.0,
       legacy_flow = .true.,

/


BC #1. Velocity BC: Inlet
&BC

       Surface_Name       = 'conic',
       Conic_X            =  1.0,
       Conic_Constant     =  0.0,
       Conic_Tolerance    = 1.0e-6,
       BC_Variable        = 'velocity',
       BC_Type            = 'dirichlet',
       BC_Value           =  0.9999, 0.0, 0.0,  

/

 

&BODY
 
       Material_name   = 'VOID'
       Surface_Name    = 'box',
       length = 0.3, 0.1, 0.1,
       translation_pt  = 0.85, 0.05, 0.05,
       Temperature     = 273.0


/

&BODY
 
       Material_name   = 'fluid'
       Surface_Name    = 'background',
       !Velocity        = 1.0, 0.0, 0.0, ! Truchas original overwrote this with zero
       Velocity        = 0.0, 0.0, 0.0,
       Temperature     = 273.0


/

&MATERIAL
  name = 'fluid'
  is_fluid = T
  density = 1.0
  specific_heat = 1.0
/

&PARALLEL_PARAMETERS

        Partitioner = 'Chaco',

/
