  One Dimensional Piston Flow 
      this calculation is to test out the void collapse model
      initially there are three void cells at one end of a 1D channel and an inlet velocity at the other
         
&MESH
 
       Mesh_File = 'mesh.exo'
 
/
 
&OUTPUTS
 
       Output_T = 0.0, 0.4, Output_Dt = 0.01,
       Precise_output               = .true.
       Output_Dt_Multiplier      =  -1,

/

&LINEAR_SOLVER

      name                   = 'projection',
      method                 = 'gmres',
      convergence_criterion  = 1.0e-10,
      preconditioning_method = 'ssor',
      relaxation_parameter   = 1.4,
      preconditioning_steps  = 3,
      stopping_criterion     = '||r||'
      maximum_iterations     = 100,
      output_mode            = 'summary'
/


&NUMERICS
       cycle_max                  = 30,
       projection_linear_solution = 'projection',
       volume_track_interfaces    = .true.
       volume_track_Brents_Method = .true.
       volume_track_subcycles     = 1,
       volume_track_iter_Tol      = 1.0e-9,
       cutvof                     = 1.0e-8, 
       courant_number             = 0.4,
       dt_constant                = 0.01
       discrete_ops_type          = 'ortho' 
/

&PHYSICS
 
       body_force_density = 0.0, 0.0, 0.0,
 
       legacy_flow     = .true.,
       inviscid        = .true.,
       stokes          = .false.,
       surface_tension = .false.

/


BC #1. Velocity BC: Inlet
&BC

       Surface_Name       = 'conic',
       Conic_X            =  1.0,
       Conic_Constant     =  0.0,
       Conic_Tolerance    = 1.0e-6,
       BC_Variable        = 'velocity',
       BC_Type            = 'dirichlet',
       BC_Value           =  0.9999, 0.0, 0.0,  

/

 

&BODY
 
       Material_number = 1,
       Surface_Name    = 'background',
       !Velocity        = 1.0, 0.0, 0.0, ! Truchas original overwrote this with zero
       Velocity        = 0.0, 0.0, 0.0,
       Temperature     = 273.0


/

&BODY
 
       Material_number = 2,
       Surface_Name    = 'box',
       length = 0.3, 0.1, 0.1,
       translation_pt  = 0.85, 0.05, 0.05,
       Temperature     = 273.0


/

&MATERIAL
 
       Material_Name      = 'fluid',
       Material_Number    = 1,
       Material_Feature   = 'background'
       priority           = 1,
       Density            = 1.0,
 
/

&PHASE
  name = 'fluid'
  property_name(1) = 'density',       property_constant(1) = 1.0
  property_name(2) = 'specific heat', property_constant(2) = 1.0
/

&MATERIAL_SYSTEM
  name = 'fluid'
  phases = 'fluid'
/

&MATERIAL
 
       Material_Name      = 'void',
       Material_Number    = 2,
       priority           = 2,
       Density            = 0.0,
       Sound_Speed = 1000.0,

/

&PARALLEL_PARAMETERS

        Partitioner = 'Chaco',

/
