Applies a linear temperature gradient along the x-direction, and computes the
resulting stress, strain, and displacement.

&MESH
  x_axis%coarse_grid = 0.0, 1.0
  y_axis%coarse_grid = 0.0, 1.0
  z_axis%coarse_grid = 0.0, 1.0
  x_axis%intervals   = 4
  y_axis%intervals   = 4
  z_axis%intervals   = 4
/

&OUTPUTS
  output_t = 0.0, 1.0
  output_dt = 1.0
/

&PHYSICS
  materials = 'stuff'
  heat_transport = .true.
  solid_mechanics = .true.
/

&DIFFUSION_SOLVER
  abs_temp_tol     = 0.0
  rel_temp_tol     = 1.0e-3
  abs_enthalpy_tol = 0.0
  rel_enthalpy_tol = 1.0e-3
  nlk_preconditioner = 'hypre_amg'
/

&SOLID_MECHANICS
  abs_displ_tol = 1e100
  rel_displ_tol = 1e100
/

&NUMERICS
  dt_init = 1e-3
/

&BODY
  surface_name = 'from mesh file'
  mesh_material_number = 1
  material_name = 'stuff'
  temperature = 350
/

&THERMAL_BC
  name = 'dirichlet'
  type = 'temperature'
  face_set_ids = 1, 2, 3, 4, 5, 6
  temp = 300.
/

&SOLID_MECHANICS_BC
  name = 'pinned-x'
  !node_set_ids = 1
  face_set_ids = 1
  type = 'displacement-x'
  displacement = 0.0
/

&SOLID_MECHANICS_BC
  name = 'pinned-y'
  !node_set_ids = 1
  face_set_ids = 3
  type = 'displacement-y'
  displacement = 0.0
/

&SOLID_MECHANICS_BC
  name = 'pinned-z'
  !node_set_ids = 1
  face_set_ids = 5
  type = 'displacement-z'
  displacement = 0.0
/

define the material properties (aluminum, SI units)
Elastic constants (stresses) in MPa to make test checking easier
&MATERIAL
  name = 'stuff'
  density = 1.0
  specific_heat = 1.0
  conductivity = 1.0
  tm_ref_density = 1.0
  tm_ref_temp = 300
  tm_linear_cte = 1.0
  tm_lame1 = 2e10
  tm_lame2 = 1e10
/
