Stretch problem. Applies a linear displacement BC on opposite faces. This forms
a set of problems, alternating direction and using either normal or hardwired
BCs. The variants applying the BCs in specified directions should produce
exactly the same result as the version applying the displacement in the normal
direction.

&MESH
  mesh_file = 'gap-x.gen'
  interface_side_sets = 10
  !rotation_angles = 45, 45, 45
/

&OUTPUTS
  output_t = 0.0, 1.0
  output_dt = 1.0
/

&NUMERICS
  dt_init = 1.0
  dt_max  = 1.0
/

&PHYSICS
  materials = 'stuff'
  solid_mechanics = .true.
/

&SOLID_MECHANICS
  maximum_iterations = 500
  nlk_max_vectors = 5
  abs_displ_tol = 1e100
  rel_displ_tol = 1e100
/

&MATERIAL
  name = 'stuff'
  density = 1.0
  tm_lame1 = 2e10
  tm_lame2 = 1e10
  tm_ref_density = 1.0
  tm_ref_temp = 1.0
  tm_linear_cte = 0.0
  ref_temp = 1.0
  ref_enthalpy = 0.0
  specific_heat = 1.0
  conductivity = 1.0
/

&BODY
  surface_name = 'from mesh file'
  material_name = 'stuff'
  mesh_material_number = 1
  temperature = 1.0
/

&SOLID_MECHANICS_BC
  name = 'displ-l'
  face_set_ids = 1, 3
  type = 'displacement-n'
  displacement = 0
/

&SOLID_MECHANICS_BC
  name = 'displ-r'
  face_set_ids = 2
  type = 'displacement-n'
  displacement = -1e-4
/

&SOLID_MECHANICS_BC
  name = 'contact'
  face_set_ids = 10
  type = 'gap-contact'
/
