HEAT TRANSFER/BUOYANCY-DRIVEN FLOW

Heat transfer and buoyancy-driven flow in a 2D unit-square cavity.
Imposed differential temperatures on left and right sides; insulating
elsewhere.  Free-slip flow conditions on all boundaries.

&MESH
  mesh_file = 'ds8.gen'
/
 
&OUTPUTS
  output_t  = 0.0, 75.0
  output_dt = 25.0
/

&PHYSICS
  materials = 'liquid'
  flow = .true.
  body_force_density = 0.0, -1.0, 0.0
  heat_transport = .true.
/

&DIFFUSION_SOLVER
  abs_temp_tol       = 0.0
  rel_temp_tol       = 1.0e-3
  abs_enthalpy_tol   = 0.0
  rel_enthalpy_tol   = 1.0e-3
  nlk_tol            = 0.05
  nlk_preconditioner = 'hypre_amg'
  pc_amg_cycles      = 2
/

&NUMERICS
  dt_init = 1.0e-4
  dt_grow = 5.0
  dt_min  = 1.0e-5
  dt_max  = 1000.0
/

&FLOW
  inviscid = .true.
  courant_number = 0.5
/

&FLOW_PRESSURE_SOLVER
  rel_tol = 0.0
  abs_tol = 1.0e-12
  max_ds_iter = 50
  max_amg_iter = 500
  ! krylov_method = 'gmres'
  ! gmres_krylov_dim = 20
  krylov_method = 'cg'
/

&THERMAL_BC
  name = 'left side'
  type = 'temperature'
  face_set_ids = 1
  temp = 2.0
/

&THERMAL_BC
  name = 'right side'
  type = 'temperature'
  face_set_ids = 2
  temp = 1.0
/

&THERMAL_BC
  name = 'other sides'
  type = 'flux'
  face_set_ids = 3, 4
  flux = 0.0
/

&FLOW_BC
  name = 'walls'    
  face_set_ids = 1, 2, 3, 4               
  type = 'free-slip'         
/

&BODY
  surface_name = 'from mesh file'
  mesh_material_number = 1
  material_name = 'liquid'
  velocity = 3*0.0
  temperature = 1.5
/

&MATERIAL
  name = 'liquid'
  is_fluid = T
  density = 1.0
  specific_heat = 1.0
  conductivity = 0.01
  density_delta_func = 'drho'
/

&FUNCTION
  name = 'drho'
  type = 'polynomial'
  poly_coefficients   = -0.01
  poly_exponents(:,1) = 1
  poly_refvars        = 1.5
/
