TWO-FLUID 2D ADVECTION
----------------------
Advection in a two-fluid 2D domain with uniform and constant velocity directed
diagonally across the the mesh. One fluid occupies a disk, and the other the
remainder of the domain. Domain is 31x31x1 with unit cells.

&OUTPUTS
  output_t  = 0.0, 2.0
  output_dt = 2.0
/

&MESH
  mesh_file = 'mesh2a.gen'
/
 
&PHYSICS
  materials = 'water', 'oil'
  prescribed_flow = .true.
/

&ADVECTION_VELOCITY
  velocity_constant = 4.0, 3.0, 0.0
/

&FLOW
  vol_track_subcycles = 4
  courant_number = 0.5
/

&NUMERICS
  dt_constant = 0.03125
  cycle_max = 1
/

&BODY
  surface_name = 'cylinder'
  axis = 'z'
  height = 5
  radius = 6
  translation_pt = 4.0, 3.0, -2.5
  material_name = 'oil'
  temperature = 0.0
/


&BODY
  surface_name = 'background'
  material_name = 'water'
  temperature = 0.0
/

&MATERIAL
  name = 'water'
  is_fluid = T
  density = 1.0
/

&MATERIAL
  name = 'oil'
  is_fluid = T
  density = 2.0
/
