TWO-FLUID 2D ADVECTION
-----------------------
Advection in a two-fluid 2D domain with planar interface oblique to velocity.
Velocity is uniform and constant and directed along a coordinate axis. Domain
is 31x31x1 with unit cells.

&OUTPUTS
  output_t  = 0.0, 2.0
  output_dt = 2.0
/

&MESH
  mesh_file = 'mesh2a.gen'
/
 
&PHYSICS
  materials = 'water', 'oil'
  prescribed_flow = .true.
/

&ADVECTION_VELOCITY
  velocity_constant = 6.0, 0.0, 0.0
/

&FLOW
  vol_track_subcycles = 4
  courant_number = 0.5
/

&NUMERICS
  dt_constant = 0.0625
/

&BODY
  surface_name = 'plane'
  axis = 'x'
  rotation_angle = 0, 0, 26.5650511770780 ! 2:1 slope
  translation_pt = -6.0, 0.0, 0.0
  material_name = 'oil'
  temperature = 0.0
/


&BODY
  surface_name = 'background'
  material_name = 'water'
  temperature = 0.0
/

&MATERIAL
  name = 'water'
  is_fluid = T
  density = 1.0
/

&MATERIAL
  name = 'oil'
  is_fluid = T
  density = 2.0
/
