&MESH
  mesh_file = 'disk+mold.g'
  mesh_file_format = 'ExodusII'
  coordinate_scale_factor = 0.01
/

&OUTPUTS
  Output_T  = 0.0, 0.05
  Output_Dt = 0.01
/

&PHYSICS
  fluid_flow = .true.
  inviscid   = .false.
  body_force = 4.9, -8.5, 0.0
  heat_conduction = .true.
/

&DIFFUSION_SOLVER
  system_type        = 'thermal'
  stepping_method    = 'Non-adaptive BDF1'
  residual_atol      = 0.0
  residual_rtol      = 1.0e-6
  !abs_temp_tol       = 0.0
  !rel_temp_tol       = 1.0e-5
  !abs_enthalpy_tol   = 0.0
  !rel_enthalpy_tol   = 1.0e-5
  max_ain_itr        = 20
  ain_tol            = 0.05
  ain_preconditioner = 'hypre_amg'
  verbose_stepping   = .true.
/

&DS_SOURCE
  equation = 'temperature'
  cell_set_ids = 3
  source_constant = 3.5e8
/
  

&NUMERICS
  dt_init = 1.0e-3
  dt_grow = 1.05
  dt_min  = 1.0e-6
  projection_linear_solution = 'projection'
  viscous_linear_solution = 'viscous'
  viscous_implicitness    = 1.0
  viscous_number          = 0.0 ! turns off viscous dt limiting
  body_force_face_method = .true.
  volume_track_interfaces    = .true.
  volume_track_Brents_Method = .true.
  volume_track_subcycles     = 1
  volume_track_iter_Tol      = 1.0e-12
  cutvof                     = 1.0e-8
  courant_number             = 0.2
  discrete_ops_type          = 'ortho' 
/

&LINEAR_SOLVER
  name                   = 'projection'
  method                 = 'gmres'
  convergence_criterion  = 1.0e-12
  preconditioning_method = 'ssor'
  relaxation_parameter   = 1.4
  preconditioning_steps  = 4
  maximum_iterations     = 500
  output_mode            = 'summary'
/

&LINEAR_SOLVER
  name                   = 'viscous'
  method                 = 'fgmres'
  convergence_criterion  = 1.0e-8
  preconditioning_method = 'diagonal'
  stopping_criterion     = '||r||/||b||'
/

Fluid-filled region in the lower part of the domain
&BODY
  surface_name = 'from mesh file'
  mesh_material_number = 1
  material_number = 1
  velocity        = 3*0.0
  temperature     = 300.0
/

Void region in the upper part of the domain
&BODY
  surface_name = 'from mesh file'
  mesh_material_number = 2
  material_number = 2
  temperature     = 300.0
/

Surrounding mold region
&BODY
  surface_name = 'from mesh file'
  mesh_material_number = 3
  material_number = 3
  temperature     = 300.0
/

&DS_BOUNDARY_CONDITION
  name = 'symmetry planes'
  variable = 'temperature'
  condition = 'flux'
  face_set_ids = 1
  data_constant = 0.0
/

&DS_BOUNDARY_CONDITION
  name = 'cirumference'
  variable = 'temperature'
  condition = 'flux'
  face_set_ids = 2
  data_constant = 0.0
/

&BC
  surface_name = 'from mesh file'
  mesh_surface = 12
  bc_variable  = 'velocity'
  bc_type      = 'no-slip'
/

&MATERIAL
  Material_Name   = 'water'
  Material_Number = 1
  priority        = 1
  Density         = 1.0e3
  Cp_Relation     = 'constant'
  Cp_Constants    = 4.1e3
  viscosity_constants = 8.3e-4
/

&PHASE
  name = 'water'
  property_name(1) = 'density',       property_constant(1) = 1.0e3
  property_name(2) = 'specific heat', property_constant(2) = 4.1e3
  property_name(3) = 'conductivity',  property_constant(3) = 61.0 !0.61
/

&MATERIAL_SYSTEM
  name = 'water'
  phases = 'water'
/

&MATERIAL
  Material_Name = 'void'
  Material_Number = 2
  Material_Feature = 'background'
  priority = 2
  Density = 0.0
  void_temperature = 300.0
/

&MATERIAL
  Material_Name   = 'copper'
  Material_Number = 3
  priority        = 3
  Immobile        = .true.
  Density         = 8.9e3
  Cp_Relation     = 'constant'
  Cp_Constants    = 390.0
/

&PHASE
  name = 'copper'
  property_name(1) = 'density',       property_constant(1) = 8.9e3
  property_name(2) = 'specific heat', property_constant(2) = 390.0
  property_name(3) = 'conductivity',  property_constant(3) = 390.0
/

&MATERIAL_SYSTEM
  name = 'copper'
  phases = 'copper'
/
